Version 4
SHEET 1 1056 704
WIRE 176 0 -32 0
WIRE 320 0 256 0
WIRE 448 0 320 0
WIRE 592 0 512 0
WIRE 144 96 -144 96
WIRE 320 96 320 0
WIRE 320 96 272 96
WIRE -704 112 -704 64
WIRE -32 128 -32 0
WIRE 32 128 -32 128
WIRE 144 128 112 128
WIRE 480 128 272 128
WIRE 144 160 96 160
WIRE 368 160 272 160
WIRE 368 176 368 160
WIRE -32 192 -32 128
WIRE 144 192 -32 192
WIRE 320 192 272 192
WIRE -704 224 -704 192
WIRE 96 256 96 160
WIRE 368 272 368 240
WIRE 480 272 480 128
WIRE 480 272 368 272
WIRE -32 304 -32 192
WIRE 160 304 -32 304
WIRE 272 304 240 304
WIRE 320 304 320 192
WIRE 320 304 272 304
WIRE 480 304 480 272
WIRE -144 320 -144 96
WIRE -144 416 -144 320
WIRE 128 416 -144 416
WIRE 160 416 128 416
WIRE 288 416 240 416
WIRE 464 416 288 416
WIRE 592 416 592 0
WIRE 592 416 464 416
WIRE 640 416 592 416
WIRE 784 416 640 416
WIRE -144 432 -144 416
WIRE -144 432 -208 432
WIRE -208 448 -208 432
WIRE -144 448 -144 432
WIRE 640 448 640 416
WIRE 784 448 784 416
WIRE 128 496 128 416
WIRE 160 496 128 496
WIRE 288 496 288 416
WIRE 288 496 224 496
WIRE -208 544 -208 528
WIRE -144 544 -144 528
WIRE -144 544 -208 544
WIRE -144 560 -144 544
WIRE 640 560 640 512
WIRE 784 560 784 528
FLAG -704 224 0
FLAG -704 64 24pc
FLAG 272 304 24pc
FLAG -144 560 0
FLAG 640 560 0
FLAG 96 256 0
FLAG 784 560 0
FLAG -144 320 FB
FLAG 464 416 OUT
FLAG 480 304 0
SYMBOL res 144 320 R270
WINDOW 0 32 56 VTop 2
WINDOW 3 0 56 VBottom 2
SYMATTR InstName R1
SYMATTR Value 1
SYMBOL cap 352 176 R0
SYMATTR InstName C2
SYMATTR Value 100p
SYMBOL schottky 448 -16 M90
WINDOW 0 0 32 VBottom 2
WINDOW 3 32 32 VTop 2
SYMATTR InstName D1
SYMATTR Value BAT54
SYMATTR Description Diode
SYMATTR Type diode
SYMBOL ind 160 16 R270
WINDOW 0 32 56 VTop 2
WINDOW 3 5 56 VBottom 2
SYMATTR InstName L1
SYMATTR Value 220µ
SYMATTR SpiceLine Rser=2
SYMBOL res 256 400 R90
WINDOW 0 0 56 VBottom 2
WINDOW 3 32 56 VTop 2
SYMATTR InstName R2
SYMATTR Value 22k
SYMBOL res -160 432 R0
SYMATTR InstName R3
SYMATTR Value 22k
SYMBOL polcap 624 448 R0
SYMATTR InstName C3
SYMATTR Value 40µ
SYMATTR SpiceLine Rser=2m
SYMBOL voltage -704 96 R0
WINDOW 123 0 0 Left 0
WINDOW 39 0 0 Left 0
SYMATTR InstName V1
SYMATTR Value 24
SYMBOL MC33063A-Q1_TRANS 208 144 R0
SYMATTR InstName U2
SYMBOL current 784 448 R0
WINDOW 123 0 0 Left 0
WINDOW 39 0 0 Left 0
SYMATTR InstName I1
SYMATTR Value 16m
SYMBOL cap 224 480 R90
WINDOW 0 0 32 VBottom 2
WINDOW 3 32 32 VTop 2
SYMATTR InstName C1
SYMATTR Value 0.01µ
SYMBOL res -192 432 M0
SYMATTR InstName R4
SYMATTR Value 1k
SYMBOL res 128 112 R90
WINDOW 0 0 56 VBottom 2
WINDOW 3 32 56 VTop 2
SYMATTR InstName R5
SYMATTR Value 180
TEXT -720 -48 Left 2 ;Vin
TEXT -368 584 Left 2 !.tran 0 15m 0 1m
LINE Normal -816 288 -816 -80 2
LINE Normal -544 288 -816 288 2
LINE Normal -544 -80 -544 288 2
LINE Normal -816 -80 -544 -80 2
