Version 4
SHEET 1 2172 712
WIRE -352 -576 -448 -576
WIRE -320 -576 -352 -576
WIRE -256 -576 -320 -576
WIRE -224 -576 -256 -576
WIRE -112 -576 -144 -576
WIRE 80 -576 -112 -576
WIRE 128 -576 80 -576
WIRE 448 -576 224 -576
WIRE 496 -576 448 -576
WIRE 736 -576 496 -576
WIRE -448 -544 -448 -576
WIRE 736 -528 736 -576
WIRE -256 -496 -256 -576
WIRE -112 -496 -112 -576
WIRE 144 -480 144 -528
WIRE -448 -448 -448 -464
WIRE -64 -432 -96 -432
WIRE -320 -416 -320 -576
WIRE -272 -416 -320 -416
WIRE 736 -416 736 -448
WIRE -64 -384 -64 -432
WIRE 48 -384 32 -384
WIRE 304 -384 48 -384
WIRE 448 -384 448 -576
WIRE 448 -384 400 -384
WIRE 320 -320 320 -336
WIRE -192 -304 -192 -384
WIRE 32 -304 32 -384
WIRE 144 -304 144 -480
WIRE 320 -304 320 -320
WIRE -64 -288 -160 -288
WIRE -32 -288 -64 -288
WIRE -160 -256 -160 -288
WIRE -144 -256 -160 -256
WIRE -32 -240 -32 -288
WIRE -32 -240 -80 -240
WIRE -192 -224 -192 -304
WIRE -144 -224 -192 -224
WIRE 32 -208 32 -224
WIRE 144 -208 144 -224
WIRE 320 -208 320 -224
WIRE 128 -80 48 -80
WIRE 288 -80 192 -80
WIRE 864 -64 784 -64
WIRE 1024 -64 928 -64
WIRE -560 32 -560 0
WIRE 48 48 48 -80
WIRE 112 48 48 48
WIRE 288 48 288 -80
WIRE 288 48 192 48
WIRE 784 48 784 -64
WIRE 848 48 784 48
WIRE 1024 48 1024 -64
WIRE 1024 48 928 48
WIRE -560 128 -560 112
WIRE -560 128 -576 128
WIRE -560 144 -560 128
WIRE -128 208 -176 208
WIRE 48 208 48 48
WIRE 48 208 -48 208
WIRE 160 208 160 176
WIRE 624 208 576 208
WIRE 784 208 784 48
WIRE 784 208 704 208
WIRE 896 208 896 176
WIRE -560 240 -560 224
WIRE 48 256 48 208
WIRE 96 256 48 256
WIRE 784 256 784 208
WIRE 832 256 784 256
WIRE 288 272 288 48
WIRE 288 272 224 272
WIRE 400 272 288 272
WIRE 1024 272 1024 48
WIRE 1024 272 960 272
WIRE 1152 272 1024 272
WIRE 96 288 48 288
WIRE 832 288 784 288
WIRE -256 320 -288 320
WIRE -128 320 -256 320
WIRE -16 320 -48 320
WIRE 48 320 48 288
WIRE 48 320 -16 320
WIRE 624 320 576 320
WIRE 784 320 784 288
WIRE 784 320 704 320
WIRE -288 336 -288 320
WIRE 48 352 48 320
WIRE 784 352 784 320
WIRE -288 432 -288 416
WIRE 784 464 784 432
WIRE 896 464 896 336
WIRE 896 464 784 464
WIRE 48 480 48 432
WIRE 160 480 160 336
WIRE 160 480 48 480
WIRE 160 528 160 480
WIRE 896 528 896 464
FLAG 32 -208 0
FLAG 736 -416 0
FLAG 80 -576 SPLIT
FLAG 144 -480 GATE
FLAG 48 -384 CAP
FLAG -560 0 VCC
FLAG 320 -320 GATEC
FLAG -560 240 VEE
FLAG -576 128 0
FLAG 496 -576 OUT
FLAG 144 -208 0
FLAG 320 -208 0
FLAG -448 -448 0
FLAG -352 -576 IN
FLAG -64 -384 0
FLAG -112 -272 VCC
FLAG -112 -208 0
FLAG -64 -288 CURR
FLAG -192 -304 CURR_RAW
FLAG -288 432 0
FLAG -256 320 CURR_LIMIT
FLAG -176 208 CURR
FLAG 1152 272 GATEC_R
FLAG 400 272 GATE_R
FLAG 160 528 VEE
FLAG 576 320 CURR
FLAG 896 528 VEE
FLAG 576 208 CURR_LIMIT
FLAG 48 -80 +
FLAG -16 320 -
FLAG 160 176 VCC
FLAG 896 176 VCC
SYMBOL voltage 32 -320 R0
WINDOW 123 0 0 Left 0
WINDOW 39 24 124 Left 2
SYMATTR InstName V2
SYMATTR Value 24
SYMBOL voltage -560 16 R0
WINDOW 123 0 0 Left 0
WINDOW 39 0 0 Left 0
SYMATTR InstName V3
SYMATTR Value {VCC}
SYMBOL voltage -560 128 R0
WINDOW 123 0 0 Left 0
WINDOW 39 0 0 Left 0
SYMATTR InstName V4
SYMATTR Value 0
SYMBOL nmos 224 -528 M270
SYMATTR InstName M1
SYMATTR Value BSC015NE2LS5I
SYMBOL nmos 400 -336 M270
SYMATTR InstName M2
SYMATTR Value BSC015NE2LS5I
SYMBOL voltage 144 -320 R0
WINDOW 123 24 44 Left 2
WINDOW 39 0 0 Left 0
SYMATTR InstName V6
SYMATTR Value 25.77364
SYMATTR Value2 AC 1 0
SYMBOL voltage 320 -320 R0
WINDOW 123 24 44 Left 2
WINDOW 39 0 0 Left 0
SYMATTR InstName V7
SYMATTR Value 1.016363
SYMATTR Value2 AC 1 180
SYMBOL res 720 -544 R0
SYMATTR InstName R11
SYMATTR Value 6
SYMBOL voltage -448 -560 R0
WINDOW 123 24 124 Left 2
WINDOW 39 24 124 Left 2
SYMATTR InstName V8
SYMATTR Value 24
SYMBOL res -128 -592 R90
WINDOW 0 0 56 VBottom 2
WINDOW 3 32 56 VTop 2
SYMATTR InstName R12
SYMATTR Value 20m
SYMBOL MAX4073T -192 -432 R0
SYMATTR InstName U5
SYMBOL OpAmps\\UniversalOpAmp3 -112 -240 R0
SYMATTR InstName U6
SYMBOL voltage -288 320 M0
WINDOW 123 0 0 Left 0
WINDOW 39 0 0 Left 0
SYMATTR InstName V1
SYMATTR Value 1
SYMBOL res -32 192 R90
WINDOW 0 0 56 VBottom 2
WINDOW 3 32 56 VTop 2
SYMATTR InstName R1
SYMATTR Value {R}
SYMBOL res 208 32 R90
WINDOW 0 0 56 VBottom 2
WINDOW 3 32 56 VTop 2
SYMATTR InstName R2
SYMATTR Value {A*R}
SYMBOL res 720 304 R90
WINDOW 0 0 56 VBottom 2
WINDOW 3 32 56 VTop 2
SYMATTR InstName R13
SYMATTR Value {R}
SYMBOL res 720 192 R90
WINDOW 0 0 56 VBottom 2
WINDOW 3 32 56 VTop 2
SYMATTR InstName R14
SYMATTR Value {R}
SYMBOL res 800 336 M0
SYMATTR InstName R15
SYMATTR Value {A*R}
SYMBOL cap 192 -96 R90
WINDOW 0 0 32 VBottom 2
WINDOW 3 32 32 VTop 2
SYMATTR InstName C3
SYMATTR Value {1/(A*R*wc)}
SYMBOL res -32 304 R90
WINDOW 0 0 56 VBottom 2
WINDOW 3 32 56 VTop 2
SYMATTR InstName R16
SYMATTR Value {R}
SYMBOL res 64 336 M0
SYMATTR InstName R17
SYMATTR Value {A*R}
SYMBOL res 944 32 R90
WINDOW 0 0 56 VBottom 2
WINDOW 3 32 56 VTop 2
SYMATTR InstName R18
SYMATTR Value {A*R}
SYMBOL cap 928 -80 R90
WINDOW 0 0 32 VBottom 2
WINDOW 3 32 32 VTop 2
SYMATTR InstName C4
SYMATTR Value {1/(A*R*wc)}
SYMBOL TL07XH_TL08XH 160 272 R0
SYMATTR InstName U1
SYMBOL TL07XH_TL08XH 896 272 R0
SYMATTR InstName U2
TEXT -664 -256 Left 2 ;.op
TEXT -664 -224 Left 2 ;.tran {simtime} startup uic
TEXT -664 -192 Left 2 !.ac dec 20 0.01 10G
TEXT -408 -88 Left 2 !.param simtime=10m
TEXT 576 -224 Left 2 !;.step dec param Imax 1 10 20
TEXT 584 -192 Left 2 !.param Imax=4
TEXT -408 -120 Left 2 !;.step dec param simtime 100m 10m 7
TEXT 160 648 Left 2 !.param A=1000 wc=1k R=1000
TEXT 200 696 Left 2 !;.step dec param wc 1k 100k 2
TEXT 160 616 Left 2 !;.param A=10 wc=1 R=1k
TEXT -792 336 Left 2 !;.step param VCC 30 40 2
TEXT -744 368 Left 2 !.param VCC=30
TEXT -568 536 Left 2 !.options abstol=1n reltol=0.001
