Version 4
SHEET 1 1420 1252
WIRE -192 80 -288 80
WIRE -128 80 -192 80
WIRE -16 80 -128 80
WIRE 32 80 -16 80
WIRE 128 80 112 80
WIRE 224 80 128 80
WIRE 240 80 224 80
WIRE 272 80 240 80
WIRE 400 80 368 80
WIRE 432 80 400 80
WIRE 560 80 512 80
WIRE 608 80 560 80
WIRE 656 80 608 80
WIRE 768 80 656 80
WIRE -288 112 -288 80
WIRE -128 112 -128 80
WIRE 224 112 224 80
WIRE 400 112 400 80
WIRE 656 112 656 80
WIRE 768 112 768 80
WIRE -16 128 -16 80
WIRE 48 128 -16 128
WIRE 128 128 128 80
WIRE 128 128 80 128
WIRE 48 144 48 128
WIRE 80 144 80 128
WIRE 352 144 352 128
WIRE -288 208 -288 192
WIRE -128 208 -128 176
WIRE 224 208 224 176
WIRE 400 208 400 176
WIRE 656 208 656 176
WIRE 768 208 768 192
WIRE -16 256 -16 128
WIRE 32 256 32 240
WIRE 32 256 -16 256
WIRE 64 272 64 240
WIRE 240 272 224 272
WIRE 416 272 240 272
WIRE 560 272 560 80
WIRE 560 272 496 272
WIRE 96 352 96 240
WIRE 224 352 224 272
WIRE 96 368 96 352
WIRE 224 448 224 432
WIRE 96 464 96 448
WIRE 176 560 176 512
WIRE 448 608 432 608
WIRE 560 608 528 608
WIRE 432 640 432 608
WIRE 176 672 176 640
WIRE 144 688 128 688
WIRE 256 704 208 704
WIRE 16 720 -16 720
WIRE 144 720 16 720
WIRE -16 736 -16 720
WIRE 432 736 432 720
WIRE 176 752 176 736
WIRE -16 832 -16 816
FLAG -288 208 0
FLAG 224 448 0
FLAG 768 208 0
FLAG 96 464 0
FLAG 64 272 0
FLAG 96 352 CURR
FLAG -192 80 IN
FLAG 240 80 SPLIT
FLAG 608 80 OUT
FLAG 176 752 0
FLAG 352 144 GATER
FLAG -16 832 0
FLAG 16 720 CURR_LIMIT
FLAG 240 272 CAP
FLAG 400 208 0
FLAG -128 208 0
FLAG 656 208 0
FLAG 224 208 0
FLAG 128 688 CURR
FLAG 256 704 GATE
FLAG 560 608 GATER
FLAG 176 512 0
FLAG 832 448 0
FLAG 832 368 0
FLAG 432 736 0
SYMBOL voltage -288 96 R0
WINDOW 123 24 152 Left 2
WINDOW 39 24 124 Left 2
SYMATTR InstName V1
SYMATTR Value 24
SYMATTR SpiceLine Rser=1
SYMBOL voltage 224 336 R0
WINDOW 123 0 0 Left 0
WINDOW 39 24 124 Left 2
SYMATTR InstName V2
SYMATTR Value 24
SYMBOL res 80 352 R0
SYMATTR InstName R2
SYMATTR Value 100k
SYMATTR SpiceLine tol=5
SYMBOL INA138 64 192 M90
SYMATTR InstName U1
SYMBOL res 128 64 R90
WINDOW 0 0 56 VBottom 2
WINDOW 3 32 56 VTop 2
SYMATTR InstName R3
SYMATTR Value 20m
SYMBOL nmos 272 128 R270
SYMATTR InstName M1
SYMATTR Value BSC059N04LS6
SYMBOL voltage -16 720 M0
WINDOW 123 0 0 Left 0
WINDOW 39 0 0 Left 0
SYMATTR InstName V4
SYMATTR Value 0.4
SYMBOL cap 384 112 R0
SYMATTR InstName C2
SYMATTR Value 10n
SYMATTR SpiceLine Rser=1
SYMBOL ind 416 96 R270
WINDOW 0 32 56 VTop 2
WINDOW 3 5 56 VBottom 2
SYMATTR InstName L1
SYMATTR Value 1µ
SYMATTR SpiceLine Rpar=1M
SYMBOL current 832 368 R0
WINDOW 123 0 0 Left 0
WINDOW 39 0 0 Left 0
SYMATTR InstName I1
SYMATTR Value PULSE(1 2 500u 100u 100u 0.1m 0.2m 1)
SYMBOL cap -144 112 R0
SYMATTR InstName C3
SYMATTR Value 4µ
SYMBOL cap 640 112 R0
SYMATTR InstName C4
SYMATTR Value 10n
SYMATTR SpiceLine Rser=1
SYMBOL cap 208 112 R0
SYMATTR InstName C5
SYMATTR Value 10n
SYMATTR SpiceLine Rser=1
SYMBOL res 512 256 R90
WINDOW 0 0 56 VBottom 2
WINDOW 3 32 56 VTop 2
SYMATTR InstName R1
SYMATTR Value 12
SYMBOL res 544 592 R90
WINDOW 0 0 56 VBottom 2
WINDOW 3 32 56 VTop 2
SYMATTR InstName R4
SYMATTR Value 10
SYMBOL voltage 176 656 R180
WINDOW 123 0 0 Left 0
WINDOW 39 24 124 Left 2
SYMATTR InstName V3
SYMATTR Value 24
SYMBOL current 768 112 R0
WINDOW 123 24 108 Left 2
WINDOW 39 0 0 Left 0
SYMATTR InstName I2
SYMATTR Value 2
SYMBOL voltage 432 624 M0
WINDOW 123 24 124 Left 2
WINDOW 39 0 0 Left 0
SYMATTR InstName V5
SYMATTR Value 24
SYMATTR Value2 AC 1
SYMBOL OpAmps\\UniversalOpAmp2 176 704 R0
SYMATTR InstName U3
TEXT -312 400 Left 2 ;.op
TEXT -312 432 Left 2 ;.tran 0 1m 100u startup
TEXT -312 464 Left 2 !.ac dec 20 0.01 10G
