Version 4.1
SHEET 1 2876 2360
WIRE -192 80 -288 80
WIRE -160 80 -192 80
WIRE -96 80 -160 80
WIRE -64 80 -96 80
WIRE 48 80 16 80
WIRE 352 80 48 80
WIRE 400 80 352 80
WIRE 688 80 496 80
WIRE 768 80 688 80
WIRE 1008 80 768 80
WIRE 1008 96 1008 80
WIRE 1136 96 1136 80
WIRE -288 112 -288 80
WIRE 416 144 416 128
WIRE -96 160 -96 80
WIRE 48 160 48 80
WIRE 1008 192 1008 176
WIRE 1136 192 1136 160
WIRE -288 208 -288 192
WIRE 96 224 64 224
WIRE -160 240 -160 80
WIRE -112 240 -160 240
WIRE 96 272 96 224
WIRE 320 272 304 272
WIRE 496 272 320 272
WIRE 688 272 688 80
WIRE 688 272 592 272
WIRE 160 304 -16 304
WIRE 176 304 160 304
WIRE 512 336 512 320
WIRE -32 352 -32 272
WIRE 304 352 304 272
WIRE -16 400 -16 304
WIRE 16 400 -16 400
WIRE 176 416 176 304
WIRE 176 416 144 416
WIRE -32 432 -32 352
WIRE 16 432 -32 432
WIRE 304 448 304 432
WIRE 448 544 368 544
WIRE 608 544 512 544
WIRE 1312 560 1232 560
WIRE 1472 560 1376 560
WIRE 1472 624 1472 560
WIRE 368 672 368 544
WIRE 432 672 368 672
WIRE 608 672 608 544
WIRE 608 672 512 672
WIRE 1232 672 1232 560
WIRE 1296 672 1232 672
WIRE 1472 672 1472 624
WIRE 1472 672 1376 672
WIRE -384 688 -384 656
WIRE -544 752 -544 736
WIRE -384 784 -384 768
WIRE -384 784 -400 784
WIRE -384 800 -384 784
WIRE 480 816 480 800
WIRE 1344 816 1344 800
WIRE 192 832 48 832
WIRE 368 832 368 672
WIRE 368 832 272 832
WIRE 1072 832 1024 832
WIRE 1232 832 1232 672
WIRE 1232 832 1152 832
WIRE -544 848 -544 832
WIRE 368 880 368 832
WIRE 416 880 368 880
WIRE 1232 880 1232 832
WIRE 1280 880 1232 880
WIRE -384 896 -384 880
WIRE 608 896 608 672
WIRE 608 896 576 896
WIRE 896 896 608 896
WIRE 1472 896 1472 672
WIRE 1472 896 1440 896
WIRE 1808 896 1472 896
WIRE 416 912 368 912
WIRE 1280 912 1232 912
WIRE 64 944 32 944
WIRE 192 944 64 944
WIRE 304 944 272 944
WIRE 368 944 368 912
WIRE 368 944 304 944
WIRE 1072 944 1024 944
WIRE 1232 944 1232 912
WIRE 1232 944 1152 944
WIRE 32 960 32 944
WIRE 368 976 368 944
WIRE 1232 976 1232 944
WIRE 32 1056 32 1040
WIRE 1232 1088 1232 1056
WIRE 1344 1088 1344 976
WIRE 1344 1088 1232 1088
WIRE 368 1104 368 1056
WIRE 480 1104 480 976
WIRE 480 1104 368 1104
WIRE 480 1152 480 1104
WIRE 1344 1152 1344 1088
FLAG -288 208 0
FLAG 304 448 0
FLAG 1008 192 0
FLAG -192 80 IN
FLAG 352 80 SPLIT
FLAG 416 144 GATE
FLAG 320 272 CAP
FLAG -384 656 VCC
FLAG 512 336 GATEC
FLAG -384 896 VEE
FLAG -400 784 0
FLAG 32 1056 0
FLAG 64 944 CURR_LIMIT
FLAG 48 832 CURR
FLAG 1808 896 GATEC
FLAG 896 896 GATE
FLAG 480 1152 VEE
FLAG 1024 944 CURR
FLAG 1344 1152 VEE
FLAG 1024 832 CURR_LIMIT
FLAG 368 544 +
FLAG 304 944 -
FLAG 480 800 VCC
FLAG 1344 800 VCC
FLAG 768 80 OUT
FLAG 96 272 0
FLAG -32 352 CURR_RAW
FLAG 80 480 0
FLAG 160 304 CURR
FLAG 80 352 IN
FLAG 1136 192 0
FLAG 1136 80 OUT
FLAG -544 848 0
FLAG -544 736 5V
FLAG 1472 624 PREGATEC
DATAFLAG 672 896 ""
DATAFLAG 1520 896 ""
DATAFLAG 912 80 ""
DATAFLAG 112 832 ""
SYMBOL voltage -288 96 R0
WINDOW 123 24 124 Left 2
WINDOW 39 24 124 Left 2
SYMATTR InstName V1
SYMATTR Value 24
SYMBOL voltage 304 336 R0
WINDOW 123 0 0 Left 0
WINDOW 39 24 124 Left 2
SYMATTR InstName V2
SYMATTR Value 24
SYMBOL res 32 64 R90
WINDOW 0 0 56 VBottom 2
WINDOW 3 32 56 VTop 2
SYMATTR InstName R3
SYMATTR Value 20m
SYMBOL voltage -384 672 R0
WINDOW 123 0 0 Left 0
WINDOW 39 0 0 Left 0
SYMATTR InstName V3
SYMATTR Value {VCC}
SYMBOL voltage -384 784 R0
WINDOW 123 0 0 Left 0
WINDOW 39 0 0 Left 0
SYMATTR InstName V8
SYMATTR Value 0
SYMBOL voltage 32 944 M0
WINDOW 123 0 0 Left 0
WINDOW 39 0 0 Left 0
SYMATTR InstName V5
SYMATTR Value 1
SYMBOL res 288 816 R90
WINDOW 0 0 56 VBottom 2
WINDOW 3 32 56 VTop 2
SYMATTR InstName R6
SYMATTR Value {R}
SYMBOL res 528 656 R90
WINDOW 0 0 56 VBottom 2
WINDOW 3 32 56 VTop 2
SYMATTR InstName R7
SYMATTR Value {A*R}
SYMBOL res 1168 928 R90
WINDOW 0 0 56 VBottom 2
WINDOW 3 32 56 VTop 2
SYMATTR InstName R8
SYMATTR Value {R}
SYMBOL res 1168 816 R90
WINDOW 0 0 56 VBottom 2
WINDOW 3 32 56 VTop 2
SYMATTR InstName R10
SYMATTR Value {R}
SYMBOL res 1248 960 M0
SYMATTR InstName R11
SYMATTR Value {A*R}
SYMBOL cap 512 528 R90
WINDOW 0 0 32 VBottom 2
WINDOW 3 32 32 VTop 2
SYMATTR InstName C3
SYMATTR Value {1/(A*R*wc)}
SYMBOL res 288 928 R90
WINDOW 0 0 56 VBottom 2
WINDOW 3 32 56 VTop 2
SYMATTR InstName R12
SYMATTR Value {R}
SYMBOL res 384 960 M0
SYMATTR InstName R13
SYMATTR Value {A*R}
SYMBOL res 1392 656 R90
WINDOW 0 0 56 VBottom 2
WINDOW 3 32 56 VTop 2
SYMATTR InstName R14
SYMATTR Value {A*R}
SYMBOL cap 1376 544 R90
WINDOW 0 0 32 VBottom 2
WINDOW 3 32 32 VTop 2
SYMATTR InstName C1
SYMATTR Value {1/(A*R*wc)}
SYMBOL nmos 592 320 M270
SYMATTR InstName M2
SYMATTR Value BSC059N04LS6
SYMBOL res 992 80 R0
SYMATTR InstName R1
SYMATTR Value 24k
SYMBOL MAX4073T -32 224 R0
SYMATTR InstName U1
SYMBOL OPA551 496 896 R0
SYMATTR InstName U2
SYMBOL OPA551 1360 896 R0
SYMATTR InstName U3
SYMBOL load 1120 96 R0
WINDOW 123 0 0 Left 0
WINDOW 39 0 0 Left 0
SYMATTR InstName I1
SYMATTR Value PWL(0 0 {simtime/10} 0 {simtime/10+1u} {Imax})
SYMBOL TLV9302 80 416 R0
SYMATTR InstName U4
SYMBOL nmos 496 128 M270
SYMATTR InstName M1
SYMATTR Value BSC059N04LS6
SYMBOL voltage -544 736 R0
WINDOW 123 0 0 Left 0
WINDOW 39 0 0 Left 0
SYMATTR InstName V4
SYMATTR Value 5
TEXT -488 400 Left 2 ;.op
TEXT -488 432 Left 2 !.tran 0 {simtime} 0
TEXT -488 464 Left 2 ;.ac dec 20 0.01 10G
TEXT -232 664 Left 2 !.param simtime=250u
TEXT 848 432 Left 2 !;.step dec param Imax 1 10 20
TEXT 856 464 Left 2 !.param Imax=2.5
TEXT -232 632 Left 2 !;.step dec param simtime 100m 10m 7
TEXT 336 1304 Left 2 !.param A=1000 wc=100k R=1000
TEXT 376 1352 Left 2 !;.step dec param A 1k 10k 4
TEXT 336 1272 Left 2 !;.param A=10 wc=1 R=1k
TEXT -616 992 Left 2 !;.step param VCC 30 40 2
TEXT -568 1024 Left 2 !.param VCC=30
TEXT -392 1192 Left 2 !;.options abstol=1n reltol=0.001
