Version 4
SHEET 1 1488 840
WIRE -256 -400 -288 -400
WIRE -208 -400 -256 -400
WIRE -160 -400 -208 -400
WIRE -144 -400 -160 -400
WIRE -48 -400 -64 -400
WIRE 0 -400 -48 -400
WIRE 48 -400 0 -400
WIRE 400 -400 144 -400
WIRE 464 -400 400 -400
WIRE 544 -400 464 -400
WIRE 544 -368 544 -400
WIRE -288 -352 -288 -400
WIRE -160 -352 -160 -400
WIRE -128 -352 -160 -352
WIRE -48 -352 -48 -400
WIRE -48 -352 -96 -352
WIRE -128 -320 -128 -352
WIRE -96 -320 -96 -352
WIRE 64 -320 64 -352
WIRE 544 -272 544 -304
WIRE -288 -240 -288 -272
WIRE -208 -208 -208 -400
WIRE -144 -208 -144 -224
WIRE -144 -208 -208 -208
WIRE 160 -208 128 -208
WIRE 256 -208 160 -208
WIRE 400 -208 400 -400
WIRE 400 -208 352 -208
WIRE -112 -192 -112 -224
WIRE -80 -176 -80 -224
WIRE -48 -176 -80 -176
WIRE 128 -160 128 -208
WIRE -80 -144 -80 -176
WIRE 640 -144 640 -160
WIRE 848 -144 848 -160
WIRE 272 -128 272 -160
WIRE -80 -48 -80 -64
WIRE 128 -48 128 -80
WIRE 640 -32 640 -64
WIRE 848 -32 848 -64
WIRE -448 80 -448 48
WIRE -736 112 -736 96
WIRE -368 176 -512 176
WIRE -448 192 -448 160
WIRE -736 208 -736 192
WIRE -736 208 -752 208
WIRE -512 208 -512 176
WIRE -480 208 -512 208
WIRE -368 208 -368 176
WIRE 192 208 80 208
WIRE 384 208 256 208
WIRE -736 224 -736 208
WIRE -368 224 -368 208
WIRE -368 224 -416 224
WIRE 1136 224 1024 224
WIRE 1328 224 1200 224
WIRE -480 240 -496 240
WIRE -448 304 -448 256
WIRE -736 320 -736 304
WIRE 80 320 80 208
WIRE 192 320 80 320
WIRE 384 320 384 208
WIRE 384 320 272 320
WIRE 1024 336 1024 224
WIRE 1136 336 1024 336
WIRE 1328 336 1328 224
WIRE 1328 336 1216 336
WIRE -160 464 -240 464
WIRE 80 464 80 320
WIRE 80 464 -80 464
WIRE 784 480 704 480
WIRE 1024 480 1024 336
WIRE 1024 480 864 480
WIRE 80 528 80 464
WIRE 128 528 80 528
WIRE 176 528 128 528
WIRE 384 544 384 320
WIRE 384 544 304 544
WIRE 464 544 384 544
WIRE 1024 544 1024 480
WIRE 1072 544 1024 544
WIRE 1120 544 1072 544
WIRE -224 560 -240 560
WIRE -160 560 -224 560
WIRE -32 560 -80 560
WIRE 128 560 -32 560
WIRE 176 560 128 560
WIRE 1328 560 1328 336
WIRE 1328 560 1248 560
WIRE 1408 560 1328 560
WIRE 784 576 704 576
WIRE 912 576 864 576
WIRE 1072 576 912 576
WIRE 1120 576 1072 576
WIRE -224 608 -224 560
WIRE -32 608 -32 560
WIRE 912 624 912 576
WIRE -224 736 -224 688
WIRE -32 736 -32 688
WIRE 912 752 912 704
FLAG -288 -240 0
FLAG -112 -192 0
FLAG -80 -48 0
FLAG -48 -176 CURR
FLAG -256 -400 IN
FLAG 128 -48 0
FLAG 160 -208 CAP
FLAG 64 -320 G3
FLAG 272 -128 G4
FLAG 544 -272 0
FLAG -448 48 0
FLAG -448 304 0
FLAG -496 240 CURR
FLAG -368 208 CURRB
FLAG -736 320 VEE
FLAG -736 96 VCC
FLAG -752 208 0
FLAG 0 -400 MID
FLAG 464 -400 OUT
FLAG -32 736 0
FLAG 240 464 VCC
FLAG 240 624 VEE
FLAG 464 544 G3_R
FLAG -240 464 CURRB
FLAG -240 560 CURR_LIMIT
FLAG 128 560 3+
FLAG 128 528 3-
FLAG -224 736 0
FLAG 912 752 0
FLAG 1184 480 VCC
FLAG 1184 640 VEE
FLAG 1408 560 G4_R
FLAG 704 576 CURRB
FLAG 704 480 CURR_LIMIT
FLAG 1072 576 4+
FLAG 1072 544 4-
FLAG 640 -32 0
FLAG 640 -160 G3
FLAG 848 -32 0
FLAG 848 -160 G4
SYMBOL voltage -288 -368 R0
WINDOW 123 0 0 Left 0
WINDOW 39 0 0 Left 0
SYMATTR InstName V1
SYMATTR Value 24
SYMBOL res -48 -416 R90
WINDOW 0 0 56 VBottom 2
WINDOW 3 32 56 VTop 2
SYMATTR InstName R1
SYMATTR Value 20m
SYMBOL INA138 -112 -272 M90
SYMATTR InstName U1
SYMBOL res -96 -160 R0
SYMATTR InstName R2
SYMATTR Value 100k
SYMBOL nmos 144 -352 M270
SYMATTR InstName M1
SYMATTR Value BSC015NE2LS5I
SYMBOL voltage 128 -176 R0
WINDOW 123 0 0 Left 0
WINDOW 39 0 0 Left 0
SYMATTR InstName V2
SYMATTR Value 24
SYMBOL load 528 -368 R0
WINDOW 123 48 36 Left 2
WINDOW 39 0 0 Left 0
SYMATTR Value2 AC 1
SYMATTR InstName I1
SYMATTR Value 1.2
SYMBOL OpAmps\\UniversalOpAmp3 -448 224 R0
SYMATTR InstName U2
SYMBOL voltage -448 176 R180
WINDOW 0 24 96 Left 2
WINDOW 3 24 16 Left 2
WINDOW 123 0 0 Left 0
WINDOW 39 0 0 Left 0
SYMATTR InstName V3
SYMATTR Value 3.3
SYMBOL voltage -736 96 R0
WINDOW 123 0 0 Left 0
WINDOW 39 0 0 Left 0
SYMATTR InstName V4
SYMATTR Value 36
SYMBOL voltage -736 208 R0
WINDOW 123 0 0 Left 0
WINDOW 39 0 0 Left 0
SYMATTR InstName V5
SYMATTR Value 0
SYMBOL nmos 352 -160 M270
SYMATTR InstName M2
SYMATTR Value BSC015NE2LS5I
SYMBOL TLV07 240 544 R0
SYMATTR InstName U3
SYMBOL res -64 544 R90
WINDOW 0 0 56 VBottom 2
WINDOW 3 32 56 VTop 2
SYMATTR InstName R3
SYMATTR Value {R}
SYMBOL res -16 592 M0
SYMATTR InstName R4
SYMATTR Value {A*R}
SYMBOL res -64 448 R90
WINDOW 0 0 56 VBottom 2
WINDOW 3 32 56 VTop 2
SYMATTR InstName R5
SYMATTR Value {R}
SYMBOL res 288 336 M270
WINDOW 0 32 56 VTop 2
WINDOW 3 0 56 VBottom 2
SYMATTR InstName R6
SYMATTR Value {A*R}
SYMBOL cap 256 192 R90
WINDOW 0 0 32 VBottom 2
WINDOW 3 32 32 VTop 2
SYMATTR InstName C1
SYMATTR Value {1/(A*R*wc)}
SYMBOL voltage -224 592 R0
WINDOW 123 0 0 Left 0
WINDOW 39 0 0 Left 0
SYMATTR InstName V6
SYMATTR Value .4
SYMBOL TLV07 1184 560 R0
SYMATTR InstName U4
SYMBOL res 880 560 R90
WINDOW 0 0 56 VBottom 2
WINDOW 3 32 56 VTop 2
SYMATTR InstName R7
SYMATTR Value {R}
SYMBOL res 928 608 M0
SYMATTR InstName R8
SYMATTR Value {A*R}
SYMBOL res 880 464 R90
WINDOW 0 0 56 VBottom 2
WINDOW 3 32 56 VTop 2
SYMATTR InstName R9
SYMATTR Value {R}
SYMBOL res 1232 352 M270
WINDOW 0 32 56 VTop 2
WINDOW 3 0 56 VBottom 2
SYMATTR InstName R10
SYMATTR Value {A*R}
SYMBOL cap 1200 208 R90
WINDOW 0 0 32 VBottom 2
WINDOW 3 32 32 VTop 2
SYMATTR InstName C2
SYMATTR Value {1/(A*R*wc)}
SYMBOL voltage 640 -160 R0
WINDOW 123 24 44 Left 2
WINDOW 39 0 0 Left 0
SYMATTR InstName V7
SYMATTR Value 35.989418
SYMBOL voltage 848 -160 R0
WINDOW 123 0 0 Left 0
WINDOW 39 0 0 Left 0
SYMATTR InstName V8
SYMATTR Value 8.8203009m
TEXT -248 24 Left 2 !.tran 0 1m 100u uic
TEXT 296 824 Left 2 !.param R=250 A=10000 wc=100Meg
TEXT -232 64 Left 2 ;.op
TEXT -248 112 Left 2 ;.ac dec 20 0.01 10G
