Version 4.1
SHEET 1 2172 712
WIRE -352 -576 -448 -576
WIRE -320 -576 -352 -576
WIRE -256 -576 -320 -576
WIRE -224 -576 -256 -576
WIRE -112 -576 -144 -576
WIRE 288 -576 -112 -576
WIRE 336 -576 288 -576
WIRE 656 -576 432 -576
WIRE 704 -576 656 -576
WIRE 944 -576 704 -576
WIRE -448 -544 -448 -576
WIRE 944 -528 944 -576
WIRE -256 -496 -256 -576
WIRE -112 -496 -112 -576
WIRE 352 -480 352 -528
WIRE -448 -448 -448 -464
WIRE -64 -432 -96 -432
WIRE -320 -416 -320 -576
WIRE -272 -416 -320 -416
WIRE 944 -416 944 -448
WIRE -64 -384 -64 -432
WIRE 256 -384 240 -384
WIRE 512 -384 256 -384
WIRE 656 -384 656 -576
WIRE 656 -384 608 -384
WIRE 0 -336 -176 -336
WIRE 16 -336 0 -336
WIRE 528 -320 528 -336
WIRE 240 -304 240 -384
WIRE 352 -304 352 -480
WIRE 528 -304 528 -320
WIRE -192 -288 -192 -384
WIRE -176 -240 -176 -336
WIRE -144 -240 -176 -240
WIRE 16 -224 16 -336
WIRE 16 -224 -16 -224
WIRE -192 -208 -192 -288
WIRE -144 -208 -192 -208
WIRE 240 -208 240 -224
WIRE 352 -208 352 -224
WIRE 528 -208 528 -224
WIRE 128 -80 48 -80
WIRE 288 -80 192 -80
WIRE 864 -64 784 -64
WIRE 1024 -64 928 -64
WIRE -560 32 -560 0
WIRE 48 48 48 -80
WIRE 112 48 48 48
WIRE 288 48 288 -80
WIRE 288 48 192 48
WIRE 784 48 784 -64
WIRE 848 48 784 48
WIRE 1024 48 1024 -64
WIRE 1024 48 928 48
WIRE -560 128 -560 112
WIRE -560 128 -576 128
WIRE -560 144 -560 128
WIRE 160 192 160 176
WIRE 896 192 896 176
WIRE -128 208 -176 208
WIRE 48 208 48 48
WIRE 48 208 -48 208
WIRE 624 208 576 208
WIRE 784 208 784 48
WIRE 784 208 704 208
WIRE -560 240 -560 224
WIRE 48 256 48 208
WIRE 96 256 48 256
WIRE 784 256 784 208
WIRE 832 256 784 256
WIRE 288 272 288 48
WIRE 288 272 256 272
WIRE 400 272 288 272
WIRE 1024 272 1024 48
WIRE 1024 272 992 272
WIRE 1152 272 1024 272
WIRE 96 288 48 288
WIRE 832 288 784 288
WIRE -256 320 -288 320
WIRE -128 320 -256 320
WIRE -16 320 -48 320
WIRE 48 320 48 288
WIRE 48 320 -16 320
WIRE 624 320 576 320
WIRE 784 320 784 288
WIRE 784 320 704 320
WIRE -288 336 -288 320
WIRE 48 352 48 320
WIRE 784 352 784 320
WIRE -288 432 -288 416
WIRE 784 464 784 432
WIRE 896 464 896 352
WIRE 896 464 784 464
WIRE 48 480 48 432
WIRE 160 480 160 352
WIRE 160 480 48 480
WIRE 160 528 160 480
WIRE 896 528 896 464
FLAG 240 -208 0
FLAG 944 -416 0
FLAG 288 -576 SPLIT
FLAG 352 -480 GATE
FLAG 256 -384 CAP
FLAG -560 0 VCC
FLAG 528 -320 GATEC
FLAG -560 240 VEE
FLAG -576 128 0
FLAG 704 -576 OUT
FLAG 352 -208 0
FLAG 528 -208 0
FLAG -448 -448 0
FLAG -352 -576 IN
FLAG -64 -384 0
FLAG -192 -288 CURR_RAW
FLAG -288 432 0
FLAG -256 320 CURR_LIMIT
FLAG -176 208 CURR
FLAG 1152 272 GATEC_R
FLAG 400 272 GATE_R
FLAG 160 528 VEE
FLAG 576 320 CURR
FLAG 896 528 VEE
FLAG 576 208 CURR_LIMIT
FLAG 48 -80 +
FLAG -16 320 -
FLAG 160 176 VCC
FLAG 896 176 VCC
FLAG -80 -160 0
FLAG -80 -288 VCC
FLAG 0 -336 CURR
SYMBOL voltage 240 -320 R0
WINDOW 123 0 0 Left 0
WINDOW 39 24 124 Left 2
SYMATTR InstName V2
SYMATTR Value 24
SYMBOL voltage -560 16 R0
WINDOW 123 0 0 Left 0
WINDOW 39 0 0 Left 0
SYMATTR InstName V3
SYMATTR Value {VCC}
SYMBOL voltage -560 128 R0
WINDOW 123 0 0 Left 0
WINDOW 39 0 0 Left 0
SYMATTR InstName V4
SYMATTR Value 0
SYMBOL voltage 352 -320 R0
WINDOW 123 24 44 Left 2
WINDOW 39 0 0 Left 0
SYMATTR Value2 AC 1 0
SYMATTR InstName V6
SYMATTR Value 25.620167
SYMBOL voltage 528 -320 R0
WINDOW 123 24 44 Left 2
WINDOW 39 0 0 Left 0
SYMATTR Value2 AC 1 180
SYMATTR InstName V7
SYMATTR Value 1.344195
SYMBOL res 928 -544 R0
SYMATTR InstName R11
SYMATTR Value 6
SYMBOL voltage -448 -560 R0
WINDOW 123 24 124 Left 2
WINDOW 39 24 124 Left 2
SYMATTR InstName V8
SYMATTR Value 24
SYMBOL res -128 -592 R90
WINDOW 0 0 56 VBottom 2
WINDOW 3 32 56 VTop 2
SYMATTR InstName R12
SYMATTR Value 20m
SYMBOL MAX4073T -192 -432 R0
SYMATTR InstName U5
SYMBOL voltage -288 320 M0
WINDOW 123 0 0 Left 0
WINDOW 39 0 0 Left 0
SYMATTR InstName V1
SYMATTR Value 1
SYMBOL res -32 192 R90
WINDOW 0 0 56 VBottom 2
WINDOW 3 32 56 VTop 2
SYMATTR InstName R1
SYMATTR Value {R}
SYMBOL res 208 32 R90
WINDOW 0 0 56 VBottom 2
WINDOW 3 32 56 VTop 2
SYMATTR InstName R2
SYMATTR Value {A*R}
SYMBOL res 720 304 R90
WINDOW 0 0 56 VBottom 2
WINDOW 3 32 56 VTop 2
SYMATTR InstName R13
SYMATTR Value {R}
SYMBOL res 720 192 R90
WINDOW 0 0 56 VBottom 2
WINDOW 3 32 56 VTop 2
SYMATTR InstName R14
SYMATTR Value {R}
SYMBOL res 800 336 M0
SYMATTR InstName R15
SYMATTR Value {A*R}
SYMBOL cap 192 -96 R90
WINDOW 0 0 32 VBottom 2
WINDOW 3 32 32 VTop 2
SYMATTR InstName C3
SYMATTR Value {1/(A*R*wc)}
SYMBOL res -32 304 R90
WINDOW 0 0 56 VBottom 2
WINDOW 3 32 56 VTop 2
SYMATTR InstName R16
SYMATTR Value {R}
SYMBOL res 64 336 M0
SYMATTR InstName R17
SYMATTR Value {A*R}
SYMBOL res 944 32 R90
WINDOW 0 0 56 VBottom 2
WINDOW 3 32 56 VTop 2
SYMATTR InstName R18
SYMATTR Value {A*R}
SYMBOL cap 928 -80 R90
WINDOW 0 0 32 VBottom 2
WINDOW 3 32 32 VTop 2
SYMATTR InstName C4
SYMATTR Value {1/(A*R*wc)}
SYMBOL OPA551 176 272 R0
SYMATTR InstName U1
SYMBOL OPA551 912 272 R0
SYMATTR InstName U2
SYMBOL TLV9302 -80 -224 R0
SYMATTR InstName U3
SYMBOL nmos 432 -528 M270
SYMATTR InstName M1
SYMATTR Value BSC059N04LS6
SYMBOL nmos 608 -336 M270
SYMATTR InstName M2
SYMATTR Value BSC059N04LS6
TEXT -664 -256 Left 2 ;.op
TEXT -664 -224 Left 2 ;.tran {simtime} startup uic
TEXT -664 -192 Left 2 !.ac dec 20 0.01 10G
TEXT -408 -88 Left 2 !.param simtime=10m
TEXT -408 -120 Left 2 !;.step dec param simtime 100m 10m 7
TEXT 160 648 Left 2 !.param A=1000 wc=2.5k R=1000
TEXT 200 696 Left 2 !;.step dec param wc 1k 100k 2
TEXT 160 616 Left 2 !;.param A=10 wc=1 R=1k
TEXT -792 336 Left 2 !;.step param VCC 30 40 2
TEXT -744 368 Left 2 !.param VCC=30
TEXT -568 536 Left 2 !;.options abstol=1n reltol=0.001
