Version 4
SHEET 1 1752 912
WIRE 720 -368 -64 -368
WIRE 736 -368 720 -368
WIRE 832 -368 816 -368
WIRE 272 -320 -32 -320
WIRE 576 -320 272 -320
WIRE 832 -304 832 -368
WIRE 576 -288 576 -320
WIRE 832 -192 832 -224
WIRE -64 -176 -64 -368
WIRE -64 -176 -272 -176
WIRE 0 -176 -64 -176
WIRE 32 -176 0 -176
WIRE 576 -176 576 -224
WIRE 576 -176 512 -176
WIRE 576 -160 576 -176
WIRE -272 -144 -272 -176
WIRE 832 -96 832 -112
WIRE 832 -96 768 -96
WIRE 0 -80 0 -176
WIRE 32 -80 0 -80
WIRE 976 -80 512 -80
WIRE -272 -48 -272 -64
WIRE 976 -32 976 -80
WIRE -128 16 -160 16
WIRE -32 16 -32 -320
WIRE -32 16 -64 16
WIRE 32 16 -32 16
WIRE 576 16 576 -96
WIRE 576 16 512 16
WIRE 832 16 832 -96
WIRE 832 16 576 16
WIRE 960 16 832 16
WIRE 1152 16 1056 16
WIRE 1280 16 1152 16
WIRE 1488 16 1280 16
WIRE 832 32 832 16
WIRE 1488 32 1488 16
WIRE 1280 48 1280 16
WIRE 32 112 -208 112
WIRE 784 112 512 112
WIRE 1280 128 1280 112
WIRE 1488 128 1488 112
WIRE 832 144 832 128
WIRE -208 208 -208 112
WIRE -128 208 -208 208
WIRE 32 208 -48 208
WIRE 560 208 512 208
WIRE 656 208 560 208
WIRE 720 208 720 -368
WIRE 720 208 656 208
WIRE 768 208 768 -96
WIRE 560 224 560 208
WIRE 656 224 656 208
WIRE 1152 224 1152 16
WIRE 1152 224 1056 224
WIRE 1056 288 1056 224
WIRE 1152 288 1152 224
WIRE 32 304 -64 304
WIRE 560 304 560 288
WIRE 560 304 512 304
WIRE 656 304 560 304
WIRE 768 304 768 288
WIRE 768 304 656 304
WIRE -208 400 -208 208
WIRE -208 400 -240 400
WIRE -128 400 -208 400
WIRE 32 400 -48 400
WIRE 624 400 512 400
WIRE 1056 400 1056 352
WIRE 1056 400 624 400
WIRE 1152 400 1152 368
WIRE 1152 400 1056 400
WIRE 1152 416 1152 400
WIRE -48 496 -64 496
WIRE 32 496 16 496
WIRE 592 496 512 496
WIRE 720 496 656 496
WIRE 1152 512 1152 496
WIRE 272 576 272 560
FLAG -272 -48 0
FLAG -272 -176 IN
FLAG -64 496 0
FLAG 272 576 0
FLAG 832 144 0
FLAG 1280 128 0
FLAG 1488 128 0
FLAG 1488 16 OUT
FLAG 1152 512 0
FLAG 720 496 0
FLAG -240 400 0
FLAG -160 16 0
FLAG 272 -320 INTVCC
FLAG -64 304 INTVCC
FLAG 624 400 FB
SYMBOL voltage -272 -160 R0
WINDOW 123 0 0 Left 0
WINDOW 39 0 0 Left 0
SYMATTR InstName V1
SYMATTR Value 4.5
SYMBOL cap 16 480 R90
WINDOW 0 0 32 VBottom 2
WINDOW 3 32 32 VTop 2
SYMATTR InstName C3
SYMATTR Value 0.01µ
SYMBOL res 640 320 M180
WINDOW 0 41 76 Left 2
WINDOW 3 42 41 Left 2
SYMATTR InstName R1
SYMATTR Value 1.2k
SYMBOL ind 848 -208 M0
WINDOW 0 1 32 Right 2
WINDOW 3 -3 72 Right 2
SYMATTR InstName L1
SYMATTR Value 0.11µ
SYMATTR SpiceLine Rser=3.5m
SYMBOL cap 560 -160 R0
SYMATTR InstName C2
SYMATTR Value 0.1µ
SYMBOL cap 1264 48 R0
SYMATTR InstName C5
SYMATTR Value 10µ
SYMATTR SpiceLine Rser=8m
SYMBOL res 1136 400 R0
SYMATTR InstName R3
SYMATTR Value 75k
SYMBOL res 1136 272 R0
SYMATTR InstName R2
SYMATTR Value 300k
SYMBOL cap 592 480 M90
WINDOW 0 0 32 VBottom 2
WINDOW 3 32 32 VTop 2
WINDOW 39 77 -61 VRight 2
SYMATTR InstName C4
SYMATTR Value 0.022µ
SYMATTR SpiceLine Rser=8.06K Cpar=220p
SYMBOL cap -64 0 R90
WINDOW 0 0 32 VBottom 2
WINDOW 3 32 32 VTop 2
SYMATTR InstName C1
SYMATTR Value 3.2µ
SYMBOL schottky 560 -288 R0
WINDOW 3 20 64 Left 2
WINDOW 0 21 2 Left 2
SYMATTR Value BAT54
SYMATTR InstName D2
SYMATTR Description Diode
SYMATTR Type diode
SYMBOL cap 544 224 R0
SYMATTR InstName C6
SYMATTR Value 0.15µ
SYMBOL LTC7804 272 160 R0
SYMATTR InstName U1
SYMBOL nmos 784 32 R0
SYMATTR InstName M3
SYMATTR Value BSC059N04LS6
SYMBOL nmos 1056 -32 R90
SYMATTR InstName M1
SYMATTR Value BSC059N04LS6
SYMBOL res 752 192 R0
SYMATTR InstName R4
SYMATTR Value 1.3k
SYMBOL cap 1040 288 R0
SYMATTR InstName C8
SYMATTR Value 6.8p
SYMBOL res -32 192 R90
WINDOW 0 0 56 VBottom 2
WINDOW 3 32 56 VTop 2
SYMATTR InstName R5
SYMATTR Value 7.5k
SYMBOL res -32 384 R90
WINDOW 0 0 56 VBottom 2
WINDOW 3 32 56 VTop 2
SYMATTR InstName R6
SYMATTR Value 100k
SYMBOL res 1472 16 R0
SYMATTR InstName R7
SYMATTR Value 19
SYMBOL ind 848 -320 M0
WINDOW 0 1 32 Right 2
WINDOW 3 -3 72 Right 2
SYMATTR InstName L2
SYMATTR Value 0.11µ
SYMATTR SpiceLine Rser=3.5m
SYMBOL ind 832 -352 M270
WINDOW 0 32 56 VTop 2
WINDOW 3 5 56 VBottom 2
SYMATTR InstName L3
SYMATTR Value 0.11µ
SYMATTR SpiceLine Rser=3.5m
TEXT 16 616 Left 2 ;.tran 0 30m 0
TEXT 16 640 Left 2 !.tran 0 30m 0 startup
