Version 4
SHEET 1 880 680
WIRE 16 80 -48 80
WIRE 80 80 16 80
WIRE 432 80 304 80
WIRE 592 80 432 80
WIRE -48 96 -48 80
WIRE 592 112 592 80
WIRE -336 160 -336 144
WIRE 80 160 48 160
WIRE 352 160 304 160
WIRE 416 160 352 160
WIRE -48 192 -48 176
WIRE 48 192 48 160
WIRE 592 224 592 192
WIRE 80 240 48 240
WIRE 352 240 304 240
WIRE -336 256 -336 240
WIRE 48 256 48 240
WIRE 352 272 352 240
WIRE 48 368 48 336
WIRE 352 384 352 352
FLAG -336 256 0
FLAG -336 144 V+
FLAG 352 384 0
FLAG 416 160 V+
FLAG 48 368 0
FLAG 48 192 0
FLAG -48 192 0
FLAG 592 224 0
FLAG 432 80 OUT
FLAG 16 80 MOD
SYMBOL SpecialFunctions\\LTC6992-1 192 160 R0
SYMATTR InstName U1
SYMBOL voltage -336 144 R0
WINDOW 123 0 0 Left 0
WINDOW 39 0 0 Left 0
SYMATTR InstName V1
SYMATTR Value 3.3
SYMBOL res 336 144 R0
SYMATTR InstName R1
SYMATTR Value 280k
SYMBOL res 336 256 R0
SYMATTR InstName R2
SYMATTR Value 1Meg
SYMBOL res 64 240 M0
SYMATTR InstName R3
SYMATTR Value 75k
SYMBOL voltage -48 80 M0
WINDOW 123 0 0 Left 0
WINDOW 39 0 0 Left 0
SYMATTR InstName V2
SYMATTR Value {V2}
SYMBOL res 576 96 R0
SYMATTR InstName R4
SYMATTR Value 1k
TEXT 424 256 Left 2 ;NDIV = 64
TEXT -40 -16 Left 2 !.step param V2 0 1 0.1
TEXT -40 296 Right 2 ;f = 10.42kHz
TEXT -368 408 Left 2 !.tran 10m
