Version 4
SHEET 1 1016 680
WIRE 352 -80 352 -96
WIRE 96 32 96 16
WIRE 352 32 352 0
WIRE 656 32 656 16
WIRE 752 32 752 16
WIRE 272 128 240 128
WIRE 944 128 912 128
WIRE -240 144 -256 144
WIRE -80 144 -240 144
WIRE 96 144 96 112
WIRE 96 144 0 144
WIRE 112 144 96 144
WIRE 480 144 448 144
WIRE 656 144 656 112
WIRE 656 144 560 144
WIRE 752 144 752 112
WIRE 752 144 656 144
WIRE 784 144 752 144
WIRE 272 160 240 160
WIRE 944 160 912 160
WIRE -16 176 -80 176
WIRE 80 176 64 176
WIRE 112 176 80 176
WIRE 784 176 752 176
WIRE -80 192 -80 176
WIRE 304 192 240 192
WIRE 976 192 912 192
WIRE -256 224 -256 144
WIRE -80 224 -80 192
WIRE 640 240 592 240
WIRE 752 240 752 176
WIRE 752 240 720 240
WIRE 304 256 304 192
WIRE 976 256 976 192
WIRE -256 320 -256 304
WIRE -144 320 -256 320
WIRE -80 320 -80 304
WIRE -80 320 -144 320
WIRE 80 320 80 176
WIRE 128 320 80 320
WIRE 304 320 304 256
WIRE 304 320 208 320
WIRE 592 320 592 240
WIRE 640 320 592 320
WIRE 752 320 752 240
WIRE 752 320 720 320
WIRE 816 320 752 320
WIRE 976 320 976 256
WIRE 976 320 896 320
WIRE -144 336 -144 320
WIRE 592 336 592 320
WIRE 592 432 592 416
FLAG -144 336 0
FLAG 96 16 0
FLAG 352 32 0
FLAG 272 160 0
FLAG -240 144 LIM
FLAG -80 192 CURR
FLAG 352 -96 VCC
FLAG 272 128 VCC
FLAG 944 160 0
FLAG 944 128 VCC
FLAG 592 432 0
FLAG 752 16 0
FLAG 656 16 0
FLAG 448 144 DIFF
FLAG 976 256 OUT
FLAG 304 256 DIFF
SYMBOL TLV9302 176 160 R0
SYMATTR InstName U1
SYMBOL voltage -256 208 R0
WINDOW 123 0 0 Left 0
WINDOW 39 0 0 Left 0
SYMATTR InstName V1
SYMATTR Value 0.77
SYMBOL voltage -80 208 R0
WINDOW 123 0 0 Left 0
WINDOW 39 0 0 Left 0
SYMATTR InstName V2
SYMATTR Value 0.4
SYMBOL res 80 160 R90
WINDOW 0 0 56 VBottom 2
WINDOW 3 32 56 VTop 2
SYMATTR InstName R1
SYMATTR Value 100k
SYMBOL res 16 128 R90
WINDOW 0 0 56 VBottom 2
WINDOW 3 32 56 VTop 2
SYMATTR InstName R2
SYMATTR Value 100k
SYMBOL res 112 128 R180
WINDOW 0 36 76 Left 2
WINDOW 3 36 40 Left 2
SYMATTR InstName R3
SYMATTR Value 600k
SYMBOL res 224 304 R90
WINDOW 0 0 56 VBottom 2
WINDOW 3 32 56 VTop 2
SYMATTR InstName R4
SYMATTR Value 600k
SYMBOL voltage 352 -96 R0
WINDOW 0 24 96 Left 2
WINDOW 3 24 16 Left 2
WINDOW 123 0 0 Left 0
WINDOW 39 0 0 Left 0
SYMATTR InstName V3
SYMATTR Value 3.3
SYMBOL TLV9302 848 160 R0
SYMATTR InstName U2
SYMBOL voltage 592 320 R0
WINDOW 123 0 0 Left 0
WINDOW 39 0 0 Left 0
SYMATTR InstName V4
SYMATTR Value 1.8
SYMBOL res 576 128 R90
WINDOW 0 0 56 VBottom 2
WINDOW 3 32 56 VTop 2
SYMATTR InstName R5
SYMATTR Value 47k
SYMBOL res 768 128 R180
WINDOW 0 36 76 Left 2
WINDOW 3 36 40 Left 2
SYMATTR InstName R6
SYMATTR Value 270k
SYMBOL res 672 128 R180
WINDOW 0 36 76 Left 2
WINDOW 3 36 40 Left 2
SYMATTR InstName R7
SYMATTR Value 330k
SYMBOL res 912 304 R90
WINDOW 0 0 56 VBottom 2
WINDOW 3 32 56 VTop 2
SYMATTR InstName R8
SYMATTR Value 22k
SYMBOL res 736 224 R90
WINDOW 0 0 56 VBottom 2
WINDOW 3 32 56 VTop 2
SYMATTR InstName R9
SYMATTR Value 120k
SYMBOL res 736 304 R90
WINDOW 0 0 56 VBottom 2
WINDOW 3 32 56 VTop 2
SYMATTR InstName R10
SYMATTR Value 18k
TEXT -288 376 Left 2 ;.op
TEXT -288 408 Left 2 !.dc V2 0 1 .1 V1 0.5 1 0.1
