Version 4
SHEET 1 1016 984
WIRE 352 -80 352 -96
WIRE 96 32 96 16
WIRE 352 32 352 0
WIRE 272 128 240 128
WIRE -240 144 -256 144
WIRE -80 144 -240 144
WIRE 96 144 96 112
WIRE 96 144 0 144
WIRE 112 144 96 144
WIRE 272 160 240 160
WIRE -16 176 -80 176
WIRE 80 176 64 176
WIRE 112 176 80 176
WIRE -80 192 -80 176
WIRE 304 192 240 192
WIRE -256 224 -256 144
WIRE -80 224 -80 192
WIRE 304 256 304 192
WIRE -256 320 -256 304
WIRE -144 320 -256 320
WIRE -80 320 -80 304
WIRE -80 320 -144 320
WIRE 80 320 80 176
WIRE 128 320 80 320
WIRE 304 320 304 256
WIRE 304 320 208 320
WIRE 352 320 304 320
WIRE 464 320 352 320
WIRE 640 320 464 320
WIRE -144 336 -144 320
WIRE 352 352 352 320
WIRE 464 352 464 320
WIRE 640 352 640 320
WIRE 640 464 640 416
WIRE 352 480 352 432
WIRE 464 480 464 432
WIRE 640 592 640 464
WIRE 592 672 560 672
WIRE 640 752 640 688
WIRE 640 864 640 832
FLAG -144 336 0
FLAG 96 16 0
FLAG 352 32 0
FLAG 272 160 0
FLAG -240 144 LIM
FLAG -80 192 CURR
FLAG 352 -96 VCC
FLAG 272 128 VCC
FLAG 304 256 DIFF_R
FLAG 352 480 DIFF
FLAG 640 464 Z47
FLAG 640 864 0
FLAG 464 480 DIFF47
FLAG 560 672 VCC
SYMBOL TLV9302 176 160 R0
SYMATTR InstName U1
SYMBOL voltage -256 208 R0
WINDOW 123 0 0 Left 0
WINDOW 39 0 0 Left 0
SYMATTR InstName V1
SYMATTR Value 2
SYMBOL voltage -80 208 R0
WINDOW 123 0 0 Left 0
WINDOW 39 0 0 Left 0
SYMATTR InstName V2
SYMATTR Value 0.4
SYMBOL res 80 160 R90
WINDOW 0 0 56 VBottom 2
WINDOW 3 32 56 VTop 2
SYMATTR InstName R1
SYMATTR Value 100k
SYMBOL res 16 128 R90
WINDOW 0 0 56 VBottom 2
WINDOW 3 32 56 VTop 2
SYMATTR InstName R2
SYMATTR Value 100k
SYMBOL res 112 128 R180
WINDOW 0 36 76 Left 2
WINDOW 3 36 40 Left 2
SYMATTR InstName R3
SYMATTR Value 1Meg
SYMBOL res 224 304 R90
WINDOW 0 0 56 VBottom 2
WINDOW 3 32 56 VTop 2
SYMATTR InstName R4
SYMATTR Value 1Meg
SYMBOL voltage 352 -96 R0
WINDOW 0 24 96 Left 2
WINDOW 3 24 16 Left 2
WINDOW 123 0 0 Left 0
WINDOW 39 0 0 Left 0
SYMATTR InstName V3
SYMATTR Value 24
SYMBOL voltage 352 336 R0
WINDOW 0 24 96 Left 2
WINDOW 3 24 16 Left 2
WINDOW 123 0 0 Left 0
WINDOW 39 0 0 Left 0
SYMATTR InstName V5
SYMATTR Value 1.8
SYMBOL res 624 736 R0
SYMATTR InstName R5
SYMATTR Value {RZ}
SYMBOL voltage 464 336 R0
WINDOW 0 24 96 Left 2
WINDOW 3 24 16 Left 2
WINDOW 123 0 0 Left 0
WINDOW 39 0 0 Left 0
SYMATTR InstName V4
SYMATTR Value 4.7
SYMBOL mmsz4678t1g 640 384 R270
SYMATTR InstName U2
SYMBOL nmos 592 592 R0
SYMATTR InstName M1
TEXT -288 376 Left 2 ;.op
TEXT -288 408 Left 2 !.dc V2 0 2 0.025
TEXT 480 928 Left 2 !;.step dec param RZ 10 100k 1
TEXT 568 968 Left 2 !.param RZ=15k
