**$ENCRYPTED_LIB
**$INTERFACE
*$
* LM5123-Q1
*****************************************************************************
* (C) Copyright 2022 Texas Instruments Incorporated. All rights reserved.
*****************************************************************************
** This model is designed as an aid for customers of Texas Instruments.
** TI and its licensors and suppliers make no warranties, either expressed
** or implied, with respect to this model, including the warranties of
** merchantability or fitness for a particular purpose.  The model is
** provided solely on an "as is" basis.  The entire risk as to its quality
** and performance is with the customer
*****************************************************************************
*
* This model is subject to change without notice. Texas Instruments
* Incorporated is not responsible for updating this model.
*
*****************************************************************************
*
** Released by: Texas Instruments Inc.
* Part: LM5123-Q1
* Date: 24OCT2022
* Model Type: TRANSIENT
* Simulator: PSPICE
* Simulator Version: 17.4
* EVM Order Number: NA
* EVM Users Guide: NA
* Datasheet: NA
* Topologies Supported: Boost
*
* Model Version: Final 1.1
*
*****************************************************************************
*
* Updates:
*
* Final 1.1
* Fixed TRK setting to support upper Vout range
*
*
*****************************************************************************
*
* Model Usage Notes:
* 1. PSpice transient model is developed considering SIMPLIS model as reference.
* 2. Temperature effects are not modeled.
*
*****************************************************************************
.SUBCKT LM5123-Q1_TRANS BIAS COMP CSN CSP HB HO LO MODE PGOOD SS SW TRK UVLO VCC
+  VH_CP VOUT VREF AGND PGND PARAMS: FSW=440k
$CDNENCSTART_ADV2
17f62b1fb318c25603aeb85644ae98a5d179ef807807791f6459efacb9d7ffc37a831b146dc0f06bb1ef275619162e6d8f7ad0dc708bf15ae1a1d5bd0ae623b2
9cc6d8b58798690e8f5c95a80ddf41a5869cfa394b1cba2697b3b5258daa185aff553f5bf49dc3693afdf37a3a37f02fcf0490b48d46dcf1a8a50d6fbf44c3ab
77fa0aec009d04ed4e9e8db7e26391a9642f5c5c0de20ab6e31402c9d1f06eb86f4f0a2703b02833b32ed705e38c55c57848c83e58dbb65ed2765fb5c7f71807
c5902a7b57ebcff37c7e67719f999d68fd925841cbc1fc71bd6924b6f3b9db7416b839c2ce1763bc3aa21277044f3d712388f2a173526cac24daa20601a63f56
f857faa80c859d50712ef9c07683092eb8b47aca37099500be6ad8e7f3c4ceb0103c456367e0fac99fcc6021d9310b930c6266893d4ede61713a87421ba523aa
e4c972df3fd5060a2d7e3b297fd78f74a3987284f95aee2fd4a47846226de87eaeeb67622f702ab17f7ddf2a9f8b5e15b3bd47e64e24ab6a57ac20a7c38c2d1f
c239fc0d16001c17e24be7b0b69f6c6bdef2a76d224cbf6103345373a9698fa2f31414874a735651ee71d37cb918a4dff595fc7c5716a9d351ebf661a76158e3
8dbbb958602553232ee699663985026b9ef4b59b82d27b3718d136702c20e10ebf3867fee02dcab891784c37e1b1a89b1dd13ee8614730b94287c0c5301924d7
16ee3c77f375596f4a9d6956264384664b95a2b36e952d570a3247b0d2f98d76ada2f827a17b5991f764ea585d7747fab7217227a0b53b5ca403920f5506c438
b2f4b7ba0f6452ac316084dcae2fbe639b51d7137aa94ec0f4088740b69df247befe6598711ee12f34cf7e224c453e00aba8c8b7f5bd832c747501e4f512feed
55d8b395b47e487e9debafde1ebdcbb27c3b02a99e3f43c20e949db261f288c2def2a76d224cbf6103345373a9698fa23a894fe4054964864ff10ddb30cc5f40
0996356154f6234e600c4f66b115d3cf10890d71fda05fda9724c4b6059f66dddea2b3a0fe510c1b1a3f9c03c89d124ca87366af4df3fe65b0036d4b8d3e03bc
6867a7d7b254d2faa3777f72859168e0ce829ed7b2514fb719157258fde7eb43f8af9ed16de88c79b16db9d744b10432ea24a8319591b4c4e75d1d39ae9b3e5e
a96ba3ff224e05a49304539c01f3fdd1cb9bfa091952f96bc91c7136d1f5b8132f6fd5bd3772b1c5440e58edfa6a132179e587f49981d60f991d4960dac5a4ff
da2a7b9b50232b7a837e83bf4bd285f6b8b47aca37099500be6ad8e7f3c4ceb0103c456367e0fac99fcc6021d9310b930c6266893d4ede61713a87421ba523aa
0816b9d0ef5982d45a41b6e76ed7a4e9989b31e90f8655a68b499706fcb69532d76544c0b04f7b557a9f47be361afc89498994583fea0dc8e59ec5742ed06bbf
ea31dda4b65aae38291fc02aed7f6165d3155be182c6a7322e928c16d158170eaecb317afc0849abcd617ff4fb4f075f8bfa8495bafc0458f9c87d241fa145da
3afc4afc36edf73d00986f9753cdc5d8cb9bfa091952f96bc91c7136d1f5b8132f6fd5bd3772b1c5440e58edfa6a132179e587f49981d60f991d4960dac5a4ff
8dbbb958602553232ee699663985026b9ef4b59b82d27b3718d136702c20e10ebf3867fee02dcab891784c37e1b1a89b1dd13ee8614730b94287c0c5301924d7
23395b2963daa70da31e22af04de5d4c9537a573fd8112a06a6421519fde3c817f05cbbeab5d0084c8629231e68392daf6100e9a5dcdef6cd23ca11ec2f5ff60
ac66bd541ffe0a92988d35eb7230acca826f0bc4368a4cba9628883782077cb7712d2364d068cf0f2c5249e1fc3e08539ce2ecc68321c0572d70fc9931e89ddd
e2a17d86e2edccd5f070127f834c9bb79bfe0fbce1feafcb6a5bc0f281db92c398ff9804dc375869fbcd03bfa1df6ac89534ba856a9bdf21edc1bce3d4a15240
1bfe82d326c6b2ec6edcb5b11fc872bba1f243b0ab23c2bdd9a27f2f16e00508b991bb1221118761f4ba9a18cd2f688ed3b5782aa2b6560d40b44ecc07b12620
e03ed4c22029c079e7f10640be32ff51c3421c669beb8218086668225cad73c59120bc1cb81a85943cc1db29279905e6d7d1658138f8a0a6a54a18904f364fdc
acbdd927e2b6cc7595cd7d969413ea9436c75cbf906ac06e48b85e6e53ca05dbdf3ff9cb1478a773b0be4ece435c3701685d488c0701c5df250748f69717dac8
7a8001f41ccf7e815e546bbd9bb34ff26ee230b74dbba13e5ed9892b9b89a1d5111696335fbd950b91b1a0984e28ff6a0a0c9329a37ffdaebf5d486d15637af6
83b389c5dfc4c8267d2d57505ec2b5f9780f9412f1ad408dfd11a1398c7790141b0ee0eb2e5a68a2c87caf18fbe5df28d19292c818cabf3196b3b1b48a26b452
d374f2639c5edccbfac9d8deb692b19ef9951c7688fecccb0962da81d0c2999e43f8a741a01564d4ccebe6faa542a5df120ac5fd9620515a64ab101d8609f8c7
a134487b7e02d4e466e6dedae80cc1fc826f0bc4368a4cba9628883782077cb7712d2364d068cf0f2c5249e1fc3e08539ce2ecc68321c0572d70fc9931e89ddd
22c832855f06fa3ded368627467ddc2200e2eeb77ac1e45fa52b42a203fa0e89804aee3470ef92e0e572ea3aa77ac6f26cbd2d1ef4b653bfe88405f3bbd4377e
9e33fe50dd5315afbeff78f74fd5d36471d9acbf3006329239dd5c4fa0de54d2b940376e21f9771e27b3197095d96a3dd7b965802038a49e011bec7e39ea110a
68cd7e50eb165dbabb826bfbd47bf8cb3ec3ad1e05aae9530bd845e4abb29ab53fe20cbc82080f16c9a612775d732260ea24a8319591b4c4e75d1d39ae9b3e5e
a96ba3ff224e05a49304539c01f3fdd1cb9bfa091952f96bc91c7136d1f5b8132f6fd5bd3772b1c5440e58edfa6a132179e587f49981d60f991d4960dac5a4ff
47655d1589298c3a85394add50fa0d7be428fe487ec62c87130966498cdc91c65714c9443b14c86dffb2adde9b573a595e30d62645ca3c68125cf16f61e4f3a2
7ea9673ecba4a002c71dd6f0113c66d341625b8670cd3289748f669e9e5bb738dec592db5104ecaf9229d60c82e29be501df4dda7829b7c6162125958909aff5
920822f6de1dd28c02e783f1e50a2407960e74af986c5f3fa33b7bb41867cd4eb39d1a0686ab4844d7cffbca6514335c14c69bd1a60de08a571c075369acea95
9aa1852b8f77f1a28d42dfc489b457a925fb6f17d8fa6641c5606c603f677185780f9412f1ad408dfd11a1398c7790149e9c742f8fe9e2b4858b3041ec852fea
88aae983158912d3f9fa81c184d631accdd7679f9a2707d1330a71f59f741eea81ecc3bb04b4d18c8b59b6122a25d71de49feec2dcd10ed20a200aa714b8b02d
c2433b106cab958304fc95daa7036225f25db89ac1d394d4e864d8a82ea6987e866be03e1e38c300ba398a461214831c7848c83e58dbb65ed2765fb5c7f71807
6ef0909facb35516da0d7db183fcf74d570cca9fcc1f023c1d5c3068bc314075bf2a2b3fc34de3f588c16f9194d80d5cd7b965802038a49e011bec7e39ea110a
6fb73605c8ca736ebbcfb77e1a06584135b56e2d223f1ec95bd7b341cbec81771e4788102c535fc05c4d189d5f6d185bf4c75c787b8104359b0df8faa41f9c96
392d8aa63e2037168e40c803437fb8bb9b51d7137aa94ec0f4088740b69df247befe6598711ee12f34cf7e224c453e00aba8c8b7f5bd832c747501e4f512feed
d374f2639c5edccbfac9d8deb692b19e9400e4d8a772c3e11e63c52b2cf7e8bef8131a6f2a5960e6684a28f19da215509d757b16959c8f6fa2fcfd06a3a0170d
1ba0fda3b074b6d32cd0476a296028941cfb89c0c6e3278c2a8e6e2c049f4cc81321c181af21cf12be681472ec8aa6f4756b9de3bbc7c2ea311c27bbc0da01fc
43987ffabcc3c75830609eb9b6010810a859c5c57ac2b5b7798ba6c9c247a87f444100831b78d81df5c62c3a29309e3c33be5cb141730d41f8b1986340935aa6
16aee9f98b37424ea7398849762695bbe7d8ece904f61a2350dc6d5e2e3138e8b46477ec4f35fa999e7c391666122c66470645d805d477b95309fc8067d81f10
dd704bca9bdc82232508a6de019af2a9960e74af986c5f3fa33b7bb41867cd4eb39d1a0686ab4844d7cffbca6514335c14c69bd1a60de08a571c075369acea95
3378e020ccaa33fa94522a4b84a6d3a9e7d8ece904f61a2350dc6d5e2e3138e8dc3056979cdccea95f8c1c143954d450470645d805d477b95309fc8067d81f10
18ede6b758eb80d5a2cb67dd9c887832960e74af986c5f3fa33b7bb41867cd4eb39d1a0686ab4844d7cffbca6514335c14c69bd1a60de08a571c075369acea95
5cad3cbc9783cccf67edb69b56ac4538d06f4888ce997bbc46e76b8820a07af1b5a7f8ef3971349444367f3d62dbeb281eb26b6b791135b3ca28d65f09bfb03a
559789557aaae44c72c65e8eed04b4a6f1605cd811749d717f1c7ad33e5361f62899eaf891b0afcd7ce28f15c961ed9706bcd7971e2ffef3778cc1281dd8689f
c7feb46d550d13f226356e33eb4a264605a3a74b34f60c2d516a0046ace7e420fa9438a779f4e9f1c7eecb14c4e0267f39d92a43e014b233f1cf5043c6591097
87832d8ad43a650bd49e0579ae6b9e2119e2951cdeb35e2f29d8d398f66150f52fbc85ffefc0742cca7b7a61952b21019f5c32a300eeda1e6bbaad05e2caf205
d767a021642e05dc074ddd123ec7c71e4c68a1317cf29e48a52e0fd1eec28b8b02a81dd500ea458078873b6cf3f236e8cee7ff6bb7109f2e5cfe762bd166c232
37c05100d7e35cbfa0fb1dbcea0d48e56ecdb114775585d9b38e78db10dba14ecc8e872614b84bc255c5af5990ae4ba21f0c1c1b5e268c37383828b32cc370d6
88b94dddfb77513f36516134df7eed1cb91ba1d4aa2c4181a064fc35b7c74c47280ca79a3a6984967b5c95b66ea0d77aad4c271b52476d776b96e159f223f5db
fa3275eda535d4982c9d08a74d88f7894c3525c0125a131431a8edaa51412de9620753ade6ccbce22e230b11b533a003a87366af4df3fe65b0036d4b8d3e03bc
04bd56dded32275592960938eb16901bc4522eaae33755bd6b9eae41d06730a0f48948369607e445017a41dc8e71d000e7adad0063a1765f12810d1059e245d9
5fcfda20859606935942e4c5a6c27cd7bf3867fee02dcab891784c37e1b1a89b26c0263a920cfd930354352922daf27a1c9351bdbe437e4dcd64f83ad7eb41da
910301d70f931d569b3b3d67721bb5453906bbf5a3d3ee1ff156c2ffb06eb72ea5a9ebee5b689027fcfb4d25d21edf792958a05ec895d07c4588be33c618fe94
fbd8d2e842bce034652dfabffb0b6a2c198eb146f19d098f1d7ca69cd1ac61ab7792d22363a758a954c0643a016a3d4c7848c83e58dbb65ed2765fb5c7f71807
6226071658d30ba7bbce423a6c4267aa047d3a03551f78b2fffd4696e1fbd3c6def2a76d224cbf6103345373a9698fa23a894fe4054964864ff10ddb30cc5f40
1017cb6d972917d10dafdc879604fdfaabe373cbc215f2be0e7b29eed5f40190447afda6b1881963e2612c6fd4fe54b82b669c739f00162e31e7927ce3c9e464
122385f6b59cfd56b5e7bb61ee1621612a693a5c14cbc32207843ddc6d6df41c375b2ad6c91ab24552783fc267ea593cea24a8319591b4c4e75d1d39ae9b3e5e
a96ba3ff224e05a49304539c01f3fdd1cb9bfa091952f96bc91c7136d1f5b8132f6fd5bd3772b1c5440e58edfa6a132179e587f49981d60f991d4960dac5a4ff
47655d1589298c3a85394add50fa0d7be428fe487ec62c87130966498cdc91c65714c9443b14c86dffb2adde9b573a595e30d62645ca3c68125cf16f61e4f3a2
21a4e29b0bf17157685bfd6696d63e6d6c1b3268d5ff20e04b5220dc2be19a2f1d441859c35e53f53a391e5c03dda54a6b4b9eba941cad81e2c122c3f610b8a7
f14892d78271d80e666d586667ba005e6d11d0fcdb52ff8b3d08823fc7374262b669b3b41db9180d0b01796f640354170a6e6faf707868394e27fd5a04bb80b5
0ed75840084f99bc05980b2c10774ec87255b9bf8a4770a80b33cd1797fca48cbb1a04b796137615c1ac2c93e9243d2f887306ca06dd2f9408fecb4d6ba96f57
400f99fdc62ebea5c8b5165cfa962019cb9bfa091952f96bc91c7136d1f5b8132f6fd5bd3772b1c5440e58edfa6a132179e587f49981d60f991d4960dac5a4ff
e74f3c6fb051f7305b1f812c1da8ddf9c0a0ae5db1e6ef1ed8261080429cccba86b34fb9b0f1add5307b165975ef7ad708a523d41a02047340c62c2df51ea280
25fb6f17d8fa6641c5606c603f677185780f9412f1ad408dfd11a1398c7790141b0ee0eb2e5a68a2c87caf18fbe5df28d19292c818cabf3196b3b1b48a26b452
ef63398fb19cd31aeee129919ea01805c1e28dd7ef59167a07ed7fce19e0f1cc110204bd725e332ff07d60363729d5d6a87366af4df3fe65b0036d4b8d3e03bc
3679836d067f81a7a6b9e3ca72a25dda41584005c25603177303e7749e4a44fcd9d8d5449ff5e30a12f65b042f70045996a1ef7d806d014ce8998b821f32bded
5fcfda20859606935942e4c5a6c27cd7bf3867fee02dcab891784c37e1b1a89b26c0263a920cfd930354352922daf27a1c9351bdbe437e4dcd64f83ad7eb41da
910301d70f931d569b3b3d67721bb5453906bbf5a3d3ee1ff156c2ffb06eb72ea5a9ebee5b689027fcfb4d25d21edf792958a05ec895d07c4588be33c618fe94
bc6609d2fb7083dc7b413f55253283824332875fd80a4a4bf416e4e72e47f36b7c6f6ef6905bc57d17ddc2fe1e3346f4ee5a621c5ab83b177eb4ca7860ee7491
7dc94779f832395059a19dedce6f2df07daa80acf1d164407a58b85c515d928101b13aedd304a203a5b20029bcf37769003cb25f597ce9e2af198d2b31707ec6
f6ab2082130cc2b8820faf58e5bee0f456d337c2bb98dcd2a3848bf31efa42bf5714c9443b14c86dffb2adde9b573a595e30d62645ca3c68125cf16f61e4f3a2
910301d70f931d569b3b3d67721bb545a2a0863e4638aac400f06f10087706175c4b5a0a943b2c09e9110cd825d5d5d507217b85bf5cf1e85356cdb59bf5c4bd
d5437f2ef49de3762319be1aa3a65b3121f9e939c462ce2a693a5a33d04c44e39b7f290d2aa3216d966bcaf0fe5bf0a71a115de499fc7b1e95d2601b26b44d74
1f2204994ef1f98e37d9d8fd4b912bd657cee38a5ab5c10bd6ad105bc6ace99339d11ce2f2fb51c6eedb64e7bcb3d7e12958a05ec895d07c4588be33c618fe94
7bb964c5ca3817e495129d2a6193ad63d5eb82618014209d1894847522199d6f108b7642f71420dc2899445168e5177c7848c83e58dbb65ed2765fb5c7f71807
8f38a03cf35987a82767e9e88a06f885d6dcc5eb6a4244555510b67ff33d5a3fbf3867fee02dcab891784c37e1b1a89b1dd13ee8614730b94287c0c5301924d7
03d3d322c7584458846b4565b79bfc3e9cce5a2ff2ae912de45565b09a57d2d1270be757327174cad811b41d5cfa317f010b92070ae53cbd10e4152ee1fb887a
01158b9adc2ae7f33227adc4fc3ef9af413727effd8b08b2494a83e77e5a54faec992691e6749fcd24b859641217ebbd7fd141646a55b25902c5749ab085b0e5
4c0632aea10322cd8ccce9ce461bc0316ecdb114775585d9b38e78db10dba14ecc8e872614b84bc255c5af5990ae4ba21f0c1c1b5e268c37383828b32cc370d6
6dc95919f64b3433b53753fdae4f0aef79cfb148ee48dac08fee30835d6c06d999fb91fba983017ebb026ef605ae4766a941fe61eff082ac14c77c7338d9c36f
b84774d2fa9053dbc210232d920a8fff4c68a1317cf29e48a52e0fd1eec28b8b02a81dd500ea458078873b6cf3f236e8cee7ff6bb7109f2e5cfe762bd166c232
d374f2639c5edccbfac9d8deb692b19e9400e4d8a772c3e11e63c52b2cf7e8bef8131a6f2a5960e6684a28f19da21550904c3f5a2e31aa784d761366a32aeb4a
1ba0fda3b074b6d32cd0476a296028941cfb89c0c6e3278c2a8e6e2c049f4cc81321c181af21cf12be681472ec8aa6f4756b9de3bbc7c2ea311c27bbc0da01fc
304074eb4d63f1184f91885f67e4a6e0e683159b70a86e5772739887e885992f61f8ebf95f8e04b5625df36b859ffb1321171335842bce6d217ea1962253d5df
af2db7cceeea1d564bd6d902c53808085f76a66942ae367be228086b45a95e939a848930bfe38306d621bfe859e79105fb6e68b8ca8b3a0a8586cbc8087747d4
ada6f05576cd12a70556f1c9f78c3f0d1d749f4bc8aa76416f59ed58f4446fdf460aa0122527ac9d6dbcd46c6a7d4b702db335a877ca1c71c3423e6a557a19e8
771908ce1c9a214972366b54b31fba754e3f204a4bbf008ef169b3ec4dfcc4faf2d7e9752f6ea0f136c0a72579674b67c6da5bfa484d702ca14e2d0476c3e899
86b34fb9b0f1add5307b165975ef7ad7cb9bfa091952f96bc91c7136d1f5b8132f6fd5bd3772b1c5440e58edfa6a132179e587f49981d60f991d4960dac5a4ff
9aa1852b8f77f1a28d42dfc489b457a925fb6f17d8fa6641c5606c603f677185780f9412f1ad408dfd11a1398c7790149e9c742f8fe9e2b4858b3041ec852fea
a736d9a0073716ce6f53b6ce52ffdba7888479c3ecaa244e12b8d2d6c6990e0ced007b5c7ce570da94829471c671688aa87366af4df3fe65b0036d4b8d3e03bc
6a103403e6dc80b37431fca1d8fa88875f2e2aadc60b8fb04825f89483189233299aded8f6f3eff8fb44cf5115a9c47c7ada422693af4300ccaefecf0777d83e
61a4b8018387950858d6471381c632fac3421c669beb8218086668225cad73c59120bc1cb81a85943cc1db29279905e6d7d1658138f8a0a6a54a18904f364fdc
033625a4c1696b59ecf4030232bffdc3ae719478c7654f139b5fdec06709b6371157abf6ded59c1c9e7ba8f125b74f7e860f245f4d1e0f177ce09612be1b3b41
bce75743b245a0ac956b0806cd46acf8f3ec96fab4be7ad91f274733438d52b2cb7cbeb928654739232ce68474a0a0c7013a267fc29ac684bb9476888805f154
ecf28f87ff3f9c35709665d2f81589440c743d6acf3fa49ebf2f34b5394ca03027c7273a1daf2f56787e6d261a2b3983b6dee7d1b406db17f52b73cc13617e73
0d3c41c3911ab730b2b9bd9d81ff4cadbf3867fee02dcab891784c37e1b1a89b26c0263a920cfd930354352922daf27a1c9351bdbe437e4dcd64f83ad7eb41da
da2a7b9b50232b7a837e83bf4bd285f6b8b47aca37099500be6ad8e7f3c4ceb0103c456367e0fac99fcc6021d9310b930c6266893d4ede61713a87421ba523aa
23e1ed2dee2031147934fe72a2b3d3c70f0db400db6b1f6736f2ad823501b71bb6a1bacb388573feb188e7591a8e42c0b138a83917f651aa5ca279290d572434
c4f955363c3243fc888e52526c7f5ed9fe53ec556ab0eecd7a74ee1a7b599b2cc823d15daedfcfe06fea8cf87a3f4ea27be2f3217d24c955c4a68382b50b8ce8
1a39b7db8fa627b1c6af818a9c814adb878df2a314568d8e496ef87da5b4d9fd5714c9443b14c86dffb2adde9b573a595e30d62645ca3c68125cf16f61e4f3a2
da2a7b9b50232b7a837e83bf4bd285f6b8b47aca37099500be6ad8e7f3c4ceb0103c456367e0fac99fcc6021d9310b930c6266893d4ede61713a87421ba523aa
a09dbc1a9509fca4de720a28c8cf0f99dd89fb442221ebefa2079abcf0fddd39eb4d302f9d2a999582c330f3a4d4f2baf5c974591f9752a57d459f487a6771e6
f2c2d4161b782d56a9e00c504ed2ce604c68a1317cf29e48a52e0fd1eec28b8b02a81dd500ea458078873b6cf3f236e8cee7ff6bb7109f2e5cfe762bd166c232
12146c895af27b09aeff33f158d6b8b85edd4e06ccfbb59d02d91b15cb8ffc06f81bed367a7498b3d0096e0e4424fc7d0498ce27c99f41abc7aa02753c3c507c
bdd639ec91984e87005e9bcb243db0aa954223f6eb0825d1baa4bac600043401bf3867fee02dcab891784c37e1b1a89b1dd13ee8614730b94287c0c5301924d7
786f876038706c394249ad82713654847e37dfbfd7926ed7da06ad3864f94424102e5985f5aba02c19f43b8e61047b1f33be5cb141730d41f8b1986340935aa6
49d03cfd8aeb5093a84d90ab2701293a12c9b71f4939ed04ffe0591a15509262c02761d643ac3f002fd26f635f2645c75a3e340fe6f8fd58d8cf4ef89a302929
3b1ec36cf003c5ef377a9c6fddcf529c9b51d7137aa94ec0f4088740b69df247befe6598711ee12f34cf7e224c453e00aba8c8b7f5bd832c747501e4f512feed
12146c895af27b09aeff33f158d6b8b85edd4e06ccfbb59d02d91b15cb8ffc06f81bed367a7498b3d0096e0e4424fc7d0498ce27c99f41abc7aa02753c3c507c
097d9f0bd0fe5ae4b81bbf1ca18b1aa1c14152869343e7ac5027cc253b012392fb3164e63196e781e0d2b88fd8fc627f21171335842bce6d217ea1962253d5df
6e85969b09365d89340dc047677d7ef95f76a66942ae367be228086b45a95e939a848930bfe38306d621bfe859e79105fb6e68b8ca8b3a0a8586cbc8087747d4
2eca46d0f5ecfb37afa8b4cc564edbc1d807b2fe26b405c850e4a3db0ec3186b4a2bd3441f76057c293a5532cae35dfcc4e626c9a528671ae4407e4f5d9e1565
cca91ef7b3bd929d88d393defcba690e2901854b123b0cc06c6b864cfef54d41b4d93c454b75b4803b63f0cbc46d3cddd7b965802038a49e011bec7e39ea110a
c71371633916d643e6f05e0f9f80602c19d46993969f1ebf332bc8a09ec94ac311465509445387c305aa7772d2413b421023287508a499a8f3a6782a13c6bccd
01e5b74784dbe6f54b2a8b511911b854eeaf9b3f63effb74baa7d74d89b423cc16d63e7c2189977882d6fd1b34fd54694521e77429b62cf40660f82aaa47ed9d
47655d1589298c3a85394add50fa0d7be428fe487ec62c87130966498cdc91c65714c9443b14c86dffb2adde9b573a595e30d62645ca3c68125cf16f61e4f3a2
5a310a00dbb80f67a90638aa8a8a6a696b1619f76a80874321e9faab655e2eb6b8e221b84d074712c3cc74c652f85ade21171335842bce6d217ea1962253d5df
01f9a2e3dfd57b7292bd7f88a307530a5f76a66942ae367be228086b45a95e939a848930bfe38306d621bfe859e79105fb6e68b8ca8b3a0a8586cbc8087747d4
d08228f59964e099b2e893b8548f4d12d4e865659fb4b8bfd648ced34fed255104e6037be143d5e86495c0c07fc44c973505662ed5966893b5cca4a5d983b404
3fe3e6c55fde05707998d2ead967d1f84546de5ec8d80be6e99b638d040097c9b70f8e23981b8c5c426ea697569c43d22db335a877ca1c71c3423e6a557a19e8
941ef3599d019fb532e62f9aa20263d6ff26572016b28664b6e4fb8d9a1297cafd434bb718249910f12926f340067af4aa2b5a5dd7f5808d0f2a67bbcaefbe61
2925639d9679174d10605bbe2b17bc1f413727effd8b08b2494a83e77e5a54faec992691e6749fcd24b859641217ebbd7fd141646a55b25902c5749ab085b0e5
d374f2639c5edccbfac9d8deb692b19e2cb4364cebdf18657072396887cecc7d43f8a741a01564d4ccebe6faa542a5df2d00c3e6ea5b5020a7e88fb2131d75c3
1ba0fda3b074b6d32cd0476a296028941cfb89c0c6e3278c2a8e6e2c049f4cc81321c181af21cf12be681472ec8aa6f4756b9de3bbc7c2ea311c27bbc0da01fc
cf37eaa5e4add32942d3285bd3b0eee9cbf367d8530e2cb37e7945e7a85b89e1a44850c91c702e7667b5df829589b04f42529c0dd033f2248cefc51f08bbf87c
23d145621d75b293b402b5d0eda452801cfb89c0c6e3278c2a8e6e2c049f4cc81321c181af21cf12be681472ec8aa6f4756b9de3bbc7c2ea311c27bbc0da01fc
910301d70f931d569b3b3d67721bb5453906bbf5a3d3ee1ff156c2ffb06eb72ea5a9ebee5b689027fcfb4d25d21edf792958a05ec895d07c4588be33c618fe94
df16c066244cb9318a3069ba64b18051cda1fe50a71613be7992c917652750cfe2999cd4ec4707fb0aa22992e62d57d0ad4c271b52476d776b96e159f223f5db
0a47fa41a187c8a233107a4bbffede77e2c67508dc443a1fdf1492adb5ef7a6ee94c08267bc295dd928b8d330af693b5cdfa940ad1a6049b70487551221cb535
08e70f9b6e73b767d2d3fa93289d8c4905a3a74b34f60c2d516a0046ace7e420fa9438a779f4e9f1c7eecb14c4e0267fc815ff5d671602013c461cdcf90327a4
f79c958976e3579ceddbddd8c1c226fa1da6140231a26433763136a2d1374b1f492c86d947ec33eb7a1024b44e8eca812db335a877ca1c71c3423e6a557a19e8
b6529453fd4b44b27e348fc15ad82a19fa9345b700e192941939145f4e8b58d037ce45698500b0397cd5e128556d0d181023287508a499a8f3a6782a13c6bccd
01e5b74784dbe6f54b2a8b511911b854eeaf9b3f63effb74baa7d74d89b423cc16d63e7c2189977882d6fd1b34fd54694521e77429b62cf40660f82aaa47ed9d
da2a7b9b50232b7a837e83bf4bd285f6b8b47aca37099500be6ad8e7f3c4ceb0103c456367e0fac99fcc6021d9310b930c6266893d4ede61713a87421ba523aa
b7c37bec7d5f67eb1e1de3c5c8048cfe8e85d3bee51d800c7056c590795c85c2cb9bfa091952f96bc91c7136d1f5b813e78a8ba55beff9e1e192881c09ec6012
0d7f6c89716b7f354a61d0416678a648cf09f15f1e01176374d2e9f4195f4e00d236e550bd2183b45fdacb636a79b4e1ff084822ddefee2ba8ee4d0f92842e57
3afc4afc36edf73d00986f9753cdc5d8cb9bfa091952f96bc91c7136d1f5b8132f6fd5bd3772b1c5440e58edfa6a132179e587f49981d60f991d4960dac5a4ff
8dbbb958602553232ee699663985026b9ef4b59b82d27b3718d136702c20e10ebf3867fee02dcab891784c37e1b1a89b1dd13ee8614730b94287c0c5301924d7
1713dbf7a94d0dbfacabd36251e026a11b448f3c99d4fc4d0b7f3151a54686079844e1376984ec886fe3f80891a7732b1023287508a499a8f3a6782a13c6bccd
01e5b74784dbe6f54b2a8b511911b854eeaf9b3f63effb74baa7d74d89b423cc16d63e7c2189977882d6fd1b34fd54694521e77429b62cf40660f82aaa47ed9d
da2a7b9b50232b7a837e83bf4bd285f6b8b47aca37099500be6ad8e7f3c4ceb0103c456367e0fac99fcc6021d9310b930c6266893d4ede61713a87421ba523aa
0decb0ccf55d9eb68563399b64568aa8f0b33ec0bad5101de61550def8dac91d55e65b90ef322d446bf11f026d7df0a52ebda0d9d82aacbd48c8da941ea42fdf
b5d9e53a9f66d0405684ca4e8fe0fb77bf3867fee02dcab891784c37e1b1a89b26c0263a920cfd930354352922daf27a1c9351bdbe437e4dcd64f83ad7eb41da
8dbbb958602553232ee699663985026bf27df898a28dba987622e4c27b2d41511cfb89c0c6e3278c2a8e6e2c049f4cc8a4da177598e74d4873457d6bb8673c3b
98b523a8ddfbead51237dcae5a777c1244f3e6a3054439b91020d9ae7783b2a44dc98579267f5a44cf6537d55b7a40c1a87366af4df3fe65b0036d4b8d3e03bc
94d59d5961eb03749e5364afec1bbdf5b3f2f490fbeb5b06910596d55bc519a73a64ef52c301b3285dbe65d952a4dbedbb03deb79ff29e79573630e98c998c92
f97af8879d90720da9e94485536ef6364ddcaf7042707784ba3c26906d692e23aff45ba4955c200a21a16af914925980c4e626c9a528671ae4407e4f5d9e1565
04ec800d389404a1697a597d42d538626b18fa5dc6b46c0fa8139a8de012529fd8561b070a81d44d9c8a92283f1b3618a603bb1e1a19e4caa6da9bb31c9f34c2
6b449c268e928f095ec9ef4639651961def2a76d224cbf6103345373a9698fa2f31414874a735651ee71d37cb918a4dff595fc7c5716a9d351ebf661a76158e3
9769e65070ecd815fb62d7684d2574886b18fa5dc6b46c0fa8139a8de012529f0c786d2082536c5b9c4dafb919533f8bce4bcad4c18ba4e0a2fa940b466a5eb8
e6949f16e3dd6f323c901adf8adc716a9b51d7137aa94ec0f4088740b69df247befe6598711ee12f34cf7e224c453e00aba8c8b7f5bd832c747501e4f512feed
79e12cf1e390eb594c1a5fccfeb5caf4132cfccf7c0b5bfc37f93c4e638ad7ef4c68a1317cf29e48a52e0fd1eec28b8b668bfc59879842ed1d2d283491ebae6e
0a1b528991389b58acc3dd78eea1a2c7c55f4ca98a9b3dac14834b236df39179ed805139626c82f719ae65f704a6e90561e63bdcd26999452ae29332d96318b5
57b6b8cd8b8d689053e7ed5e45f5ebc1d06f4888ce997bbc46e76b8820a07af142a2e4575f2807673b46a2fd55768f15d07dcc79e03164477266a4f492ac0137
b5d9e53a9f66d0405684ca4e8fe0fb77bf3867fee02dcab891784c37e1b1a89b26c0263a920cfd930354352922daf27a1c9351bdbe437e4dcd64f83ad7eb41da
8dbbb958602553232ee699663985026b9ef4b59b82d27b3718d136702c20e10ebf3867fee02dcab891784c37e1b1a89b1dd13ee8614730b94287c0c5301924d7
4966e506dc072aecb0b6d66bcd087a33e64479e4ee64043b115fbc6feb79d47e79a8a8c0bf930b78480dbdc994819e8833f8ec432df5979d1dcf8c7fd79dff10
c239fc0d16001c17e24be7b0b69f6c6bdef2a76d224cbf6103345373a9698fa2f31414874a735651ee71d37cb918a4dff595fc7c5716a9d351ebf661a76158e3
8dbbb958602553232ee699663985026b9ef4b59b82d27b3718d136702c20e10ebf3867fee02dcab891784c37e1b1a89b1dd13ee8614730b94287c0c5301924d7
25ee1a9e5c2945168f6bace73f90f3ac92966988590d03c417ee66994ad8d908b5501f4ba8a5938996deee14219e6cbd25f1ce1cc7adc9400bd27395c2613158
ff41817d38c213a03b320b153c1bb7cddef2a76d224cbf6103345373a9698fa2f31414874a735651ee71d37cb918a4dff595fc7c5716a9d351ebf661a76158e3
f17394bf7ded020a4fcf6243df43211c92966988590d03c417ee66994ad8d90826de9384a3cd2905251b8ea744976c343e3daa8be1a3bdba8ee999c4fa3de700
bb89c212cc8be8bf74cc44aa9f4c04b4c3421c669beb8218086668225cad73c59120bc1cb81a85943cc1db29279905e6d7d1658138f8a0a6a54a18904f364fdc
29164a703e344d32755dcdc263ede5274bb8f075d7ba894301a81b4d75f7a563ad64d60c7738bcd7abcd6ca4b145ac0716e31a45c054d891cf2c95eb2c0e16ee
951d238f0d39458122962f789c4a4460c3421c669beb8218086668225cad73c59120bc1cb81a85943cc1db29279905e6d7d1658138f8a0a6a54a18904f364fdc
d374f2639c5edccbfac9d8deb692b19e9400e4d8a772c3e11e63c52b2cf7e8bef8131a6f2a5960e6684a28f19da21550ea9ac29dd13d0271a04012d5ed539664
c4c85a93807210d9aa0ee799f7bb7568f1605cd811749d717f1c7ad33e5361f62899eaf891b0afcd7ce28f15c961ed9706bcd7971e2ffef3778cc1281dd8689f
50764e3e71ab46fbb5d45b0733143803437528488b0cd3f103d5f90b2cb474407792d22363a758a954c0643a016a3d4c7848c83e58dbb65ed2765fb5c7f71807
fbb4791337fa1f400f2939296eb38e2dd87df496997c27b493a848a4f23fdf37245a66747ca47d2d4ec61a9806a0cc9be49feec2dcd10ed20a200aa714b8b02d
501c7f707b13450547a74e585ce14279ac0d7be67727edaaded7d1b37687c2f95011deae9de2980f1acd376cd48b8c2d77009d8605aa09bc2a3a153bc11b9030
95eba0e69e0f0afded41d296e1999e66cb9bfa091952f96bc91c7136d1f5b8132f6fd5bd3772b1c5440e58edfa6a132179e587f49981d60f991d4960dac5a4ff
910301d70f931d569b3b3d67721bb5453906bbf5a3d3ee1ff156c2ffb06eb72ea5a9ebee5b689027fcfb4d25d21edf792958a05ec895d07c4588be33c618fe94
556bc2e6405650066183137af508a64040e40dee0ca2c0d8d906d8e8ac6d94af65249f1ce9387975174a15d93419fe683dbde498584330e5327c99926b35a35d
97acd2d5e16f215830726433e3958d8056d337c2bb98dcd2a3848bf31efa42bf5714c9443b14c86dffb2adde9b573a595e30d62645ca3c68125cf16f61e4f3a2
910301d70f931d569b3b3d67721bb545a2a0863e4638aac400f06f10087706174435008a8a4c2dd96c84a0a9dffa20246b4b9eba941cad81e2c122c3f610b8a7
04a7130651e56d9d614dc3d48dea9ac3e79ec9eb703571b93d5532c01f2ee99d9b81d4708f2599a4cc0b77dfecd35a7d2958a05ec895d07c4588be33c618fe94
b83c8bfbee55ecdd4aa0a7e2318b4803b5d6a0df2bc56538354eae2c056e6c6104e3ac5da7786ac5b1fae8d3ce1171b88506ee3f79e6fed7006b3dce5bc3dace
c0387ca0bde871696d969afa5d0af2d44b78f1da9d67daac5f9a82cf9d5df9f10974441eff03ae54f1312446a759d6037cda72a3fba43b1c07b30b3867bbd5ba
43ffa5394454649c1ef4e6d56d5082e24c68a1317cf29e48a52e0fd1eec28b8b02a81dd500ea458078873b6cf3f236e8cee7ff6bb7109f2e5cfe762bd166c232
acbdd927e2b6cc7595cd7d969413ea9436c75cbf906ac06e48b85e6e53ca05dbdf3ff9cb1478a773b0be4ece435c3701685d488c0701c5df250748f69717dac8
d25f53e0fba699f0126d6141d5ba62f47ff3e6ccb66053e74a1f60b1adc1879c5f3ae6c2c28e857dbea77dbd95e68bc93da858b7ecf2d1b3841e1c4478d8e157
84a680838998e36e1b926badc2c9a53cbf3867fee02dcab891784c37e1b1a89b26c0263a920cfd930354352922daf27a1c9351bdbe437e4dcd64f83ad7eb41da
7531b8ff956a25f99a659e1895cb0e13c0a0ae5db1e6ef1ed8261080429cccba86b34fb9b0f1add5307b165975ef7ad708a523d41a02047340c62c2df51ea280
25fb6f17d8fa6641c5606c603f677185780f9412f1ad408dfd11a1398c7790141b0ee0eb2e5a68a2c87caf18fbe5df28d19292c818cabf3196b3b1b48a26b452
6a40e94cae0950ef796bbd09c141aa296b103ade35aa4220578276357e356d37586acd76f8d2a4800f5d1a93d1845f817848c83e58dbb65ed2765fb5c7f71807
26208259c64b38f94f6bc251f3b72d6ed14d09dc0eacb3140df0bb0509660a1b49dfa77e8d30af96d6443b0596b1ef31a87366af4df3fe65b0036d4b8d3e03bc
f7bd2dac57b6f6e4da7e98a7f1e7ddcd3bd2194c5542ccc798fc140a8c72aa68f2fea89bf0aff2855cd5940dd104bb414943e2b15dfc2d1a55240569cdcefb83
1ed4a190137e5ed7faa7fddebc1b1df69bfe0fbce1feafcb6a5bc0f281db92c398ff9804dc375869fbcd03bfa1df6ac89534ba856a9bdf21edc1bce3d4a15240
e9c85594b165e23bff50300129c84ec49de0ed5f2710e6d353dd6524073b2692aaaf19d7654fa41e58223a6f1518213a7848c83e58dbb65ed2765fb5c7f71807
fbadbdaf9bce388ff83528c74b9ae71ce1c6cf8907b478bf3986160fcf2bdd8f0a4c40bda1c96cc120bf1c3793485a32e49feec2dcd10ed20a200aa714b8b02d
3f87fabfc98bc3d9db4a2848a0b235e3a0cc449a5e2e75b7486e336102ca5c29bbd1d031c173913e0aa6268a8357af06dee37d1c50fef923a648ee31b1c4b46f
0995cbe3f4cb6c31e72ab2ecfde5154df1605cd811749d717f1c7ad33e5361f62899eaf891b0afcd7ce28f15c961ed9706bcd7971e2ffef3778cc1281dd8689f
f402c8f44bace23750a13352d0b40d1150ed81b393f0e8d303a9694f45b03d13783f28d229fd533c0616116240c41464d8f2144b2993f25fb2a593856e472f0b
6f77dbb5c8563428bbdca688b5339c2b2c6570c83ee2c8f6667cbe6c23c9dc47321200bb1ca3c252c2f8e5f5d3ee47cca87366af4df3fe65b0036d4b8d3e03bc
57de7be175049f2cb70ecb3b9e6e683fbc047f6b6dba74d5ee4a98feaa65d41dedd8b5167407d7dc957e62949d9f579767a48c9d2f86133afb498f7b62ee05dc
3afc4afc36edf73d00986f9753cdc5d8cb9bfa091952f96bc91c7136d1f5b8132f6fd5bd3772b1c5440e58edfa6a132179e587f49981d60f991d4960dac5a4ff
8dbbb958602553232ee699663985026b9ef4b59b82d27b3718d136702c20e10ebf3867fee02dcab891784c37e1b1a89b1dd13ee8614730b94287c0c5301924d7
03816cdc43fdd9b598b80dbbd3957be93a24fa30d885f1648cac7e5175f31e18e4b5799069374058be9279fe5eeed28007217b85bf5cf1e85356cdb59bf5c4bd
be08aba97f0d9e8fe320a36a6efac3a6e5d585d479bc6b3bd8f879fa79fb3d26b897e061f1a008aef333483396179c1c797ae29cc0092986f221198c5d2d3ee3
698cc0351087e6bcd134a40d4f17f677960e74af986c5f3fa33b7bb41867cd4eb39d1a0686ab4844d7cffbca6514335c14c69bd1a60de08a571c075369acea95
8dbbb958602553232ee699663985026bf27df898a28dba987622e4c27b2d41511cfb89c0c6e3278c2a8e6e2c049f4cc8a4da177598e74d4873457d6bb8673c3b
29728a58dc218e7f85e2a2b7848beb1dfe1a38503a6111075259f2f89d38b9fefd512cf5e390c429bd8cc41ff56c79b6cf0267bb1b922baad61d1346e30b2b57
fb04deaf8bd6d37300233099af2746fab0e298e9a61776818d2766c753ca907d5714c9443b14c86dffb2adde9b573a595e30d62645ca3c68125cf16f61e4f3a2
8dbbb958602553232ee699663985026b9ef4b59b82d27b3718d136702c20e10ebf3867fee02dcab891784c37e1b1a89b1dd13ee8614730b94287c0c5301924d7
92c949a50b77fbbce16af5f1ffe0bfe89b2df08a6759f26becbb2effab5c98dd3e517cd560ceebbd2a3e0cfdc2f0b15bb0ae236bec0fcabd91f23d2ba02ffa2f
1a39b7db8fa627b1c6af818a9c814adb878df2a314568d8e496ef87da5b4d9fd5714c9443b14c86dffb2adde9b573a595e30d62645ca3c68125cf16f61e4f3a2
47655d1589298c3a85394add50fa0d7be428fe487ec62c87130966498cdc91c65714c9443b14c86dffb2adde9b573a595e30d62645ca3c68125cf16f61e4f3a2
340a1f7c7937da435e31290b3736d0e415c9efbb3189cc0b5ed783aec7573a1c81ecc3bb04b4d18c8b59b6122a25d71de49feec2dcd10ed20a200aa714b8b02d
bd2ce647b5ee19065182d5fbc9bc74b14eb0cd568039047e3c7a6925f20430d3447afda6b1881963e2612c6fd4fe54b82b669c739f00162e31e7927ce3c9e464
7f0c75d3f5c6d032e2d47f96e43cbf50d58a82383cbfcb1083a891673ffedb3f460aa0122527ac9d6dbcd46c6a7d4b702db335a877ca1c71c3423e6a557a19e8